Geom Title=
Program Version=5.00
Viewing Rectangle= 323287.561643996 , 325066.273956383 , 393231.545485167 , 392155.905998183 

Junct Name=3               
Junct Desc=, 0 , 0 ,-1 ,0
Junct X Y & Text X Y=324539,392790,324539,392790
Up River,Reach=Doplyw A        ,gorna czesc     
Up River,Reach=Doplyw B        ,testowy         
Dn River,Reach=Doplyw A        ,dolna czesc     
Junc L&A=110.272,0
Junc L&A=0,0

Junct Name=2               
Junct Desc=, 0 , 0 ,-1 ,0
Junct X Y & Text X Y=324022.3592777,392742.4615505,324022.3592777,392742.4615505
Up River,Reach=Doplyw A        ,dolna czesc     
Up River,Reach=Odra            ,gorny           
Dn River,Reach=Odra            ,dolny           
Junc L&A=0,0
Junc L&A=352.805,0

River Reach=Doplyw A        ,gorna czesc     
Reach XY= 7 
325048.835600379392182.454607042324950.220163651392304.297347291
324814.576844908392338.003569935324717.451037107392462.035021885
324675.580414843392607.905644149324564.097925785392727.129377736
         324539.         392790.
Rch Text X Y=324921.3767003,392334.3409553
Reverse River Text= 0 

Type RM Length L Ch R = 1 ,1050    ,259.687,251.159,221.771
XS GIS Cut Line=2
         324561.         392214.324993.238013326392443.318089437
Node Last Edited Time=Oct-08-2015 08:50:15
#Sta/Elev= 52 
       0   91.91      10    93.2      20    93.5      30   95.42      40   94.84
      50   94.84      60   93.22      70   92.84      80   92.73      90   92.49
     100   92.68     110   92.66     120   92.76     130   92.98     140   93.37
     150   92.63     160   92.03     170   92.07     180   92.07     190   93.01
     200   93.07     210   92.93     220   92.81     230   92.76 239.936  92.621
     240   92.62     250   92.37     260   92.39     270   92.28     280   90.21
 281.285  90.387     290   91.59     300   92.64     310   92.62     320   92.78
     330   92.63     340   92.66     350   92.55     370   92.55     380   92.27
     390   92.47 390.871  92.479     400   92.57     410   92.23     420   92.35
     430    92.2     440   92.18     450   92.82     460   92.82     470   92.86
     480   92.89 489.302   93.02
#Mann= 2 ,-1 , 0 
       0     .05       0 239.936     .06       0
Levee=-1,40.798,0,0,,,1,
Bank Sta=281.285,390.871
XS Rating Curve= 0 ,0
XS HTab Horizontal Distribution= 5 , 5 , 5 
Exp/Cntr=0.3,0.1

Type RM Length L Ch R = 1 ,800     ,179.897,207.837,269.631
XS GIS Cut Line=2
         324502.         392496.324911.849880119392634.423155092
Node Last Edited Time=Oct-08-2015 08:50:15
#Sta/Elev= 48 
       0   92.82      10   93.02      20   96.19      30   94.84      40   93.39
      50   93.27      60   93.28      70   93.15      80   92.78      90   92.66
     100    92.6     110    92.7     120    92.7     130   92.73     140   92.83
     150   93.08     160   92.82 168.539  92.666     170   92.64     180   92.18
     190   92.32     200   90.04 205.871  90.052     210   90.06     220   90.64
     230   91.91  233.72  92.375     240   93.16     250   93.31     260   93.27
     270   93.12     280   93.05     290   92.94     300    92.9     310   92.68
     320   92.43     330    92.4     340   92.44     350   92.52     360   92.56
     370    92.7     380    92.8     390   93.02     400   93.01     410   93.42
     420    93.4     430    93.5 432.594    93.5
#Mann= 2 ,-1 , 0 
       0     .05       0 205.871     .06       0
Levee=-1,25.512,0,0,,,1,
#Block Obstruct= 1 ,-1 
       0  75.303       0
Bank Sta=168.539,233.72
XS Rating Curve= 0 ,0
XS HTab Horizontal Distribution= 5 , 5 , 5 
Exp/Cntr=0.3,0.1

Type RM Length L Ch R = 1 ,598     ,80.191,110.272,136.07
XS GIS Cut Line=2
         324540.         392695.         324628.         392760.
Node Last Edited Time=Oct-08-2015 08:50:15
#Sta/Elev= 15 
       0   92.65      10   92.82  12.803  92.629      20   92.14      30   90.09
      40   90.18   46.81  91.508      50   92.13      60   92.69      70    92.7
      80   92.98  82.854  92.954      90   92.89     100   93.02 109.403   93.01
#Mann= 2 ,-1 , 0 
       0     .05       0   46.81     .06       0
Bank Sta=12.803,82.854
XS Rating Curve= 0 ,0
XS HTab Horizontal Distribution= 5 , 5 , 5 
Exp/Cntr=0.3,0.1

River Reach=Doplyw B        ,testowy         
Reach XY= 5 
324741.255185536393041.643318743324652.741244529         392964.
324617.955235772392910.181631175324601.902074215392855.419585157
         324539.         392790.
Rch Text X Y=324690.6913892,392978.7324891
Reverse River Text= 0 

Type RM Length L Ch R = 1 ,306     ,191.26,231.997,261.932
XS GIS Cut Line=2
         324759.         392945.         324690.         393101.
Node Last Edited Time=Oct-08-2015 08:50:15
#Sta/Elev= 21 
       0   92.05      10   92.37      20   91.76      30   91.87  38.131  92.024
      40   92.06      50   92.01      60   92.16      70   92.32   72.92  92.326
      80   92.34      90   91.02     100   91.71     110   91.67     120   91.97
     130   91.95     140   90.91     150   92.11     160   92.29     170    92.3
 170.578    92.3
#Mann= 2 ,-1 , 0 
       0     .06       0   72.92     .04       0
Bank Sta=38.131,140
XS Rating Curve= 0 ,0
XS HTab Horizontal Distribution= 5 , 5 , 5 
Exp/Cntr=0.3,0.1

Type RM Length L Ch R = 1 ,74      ,0,0,0
XS GIS Cut Line=2
         324637.         392813.         324516.         392892.
Node Last Edited Time=Oct-08-2015 08:50:15
#Sta/Elev= 19 
       0   92.94      10   92.96      20   92.83      30   92.82      40   91.19
  41.482  91.194      50   91.22  57.582  91.273      60   91.29      70   91.05
      80   92.01      90   92.69     100   92.81     110   92.69 117.798   92.69
     120   92.69     130   92.68     140   92.79 144.506   92.69
#Mann= 2 ,-1 , 0 
       0     .06       0  57.582     .04       0
Bank Sta=41.482,117.798
XS Rating Curve= 0 ,0
XS HTab Horizontal Distribution= 5 , 5 , 5 
Exp/Cntr=0.3,0.1

River Reach=Doplyw A        ,dolna czesc     
Reach XY= 2 
         324539.         392790.324022.359277679 392742.46155053
Rch Text X Y=324409.8398194,392778.1153876
Reverse River Text= 0 

Type RM Length L Ch R = 1 ,478     ,76.291,76.996,77.47
XS GIS Cut Line=2
         324499.         392736.         324497.         392835.
Node Last Edited Time=Oct-08-2015 08:50:15
#Sta/Elev= 24 
       0   92.22       5   91.69      10   91.05  13.018  90.827      15   90.68
      20   90.36      25   89.84      30   89.79      35   89.75      40   89.76
  40.528  89.762      45   89.78      50   89.79      55   89.92      60   90.14
      65   90.53      70   90.67  74.705  90.877      75   90.89      80   91.01
      85   91.62      90   92.06      95   92.28   99.02   92.24
#Mann= 2 ,-1 , 0 
       0     .05       0  40.528     .04       0
Bank Sta=13.018,74.705
XS Rating Curve= 0 ,0
XS HTab Horizontal Distribution= 5 , 5 , 5 
Exp/Cntr=0.3,0.1

Type RM Length L Ch R = 1 ,401     ,0,0,0
XS GIS Cut Line=2
         324424.         392734.         324419.         392832.
Node Last Edited Time=Oct-08-2015 08:50:15
#Sta/Elev= 23 
       0   91.45       5   91.54      10   91.67      15   92.57  19.185  92.453
      20   92.43      25   92.38      30   93.11      35    93.3      40   93.09
      45   92.91      50   92.86      55   93.59      60   93.03      65   93.44
      70   93.29      75    93.2   79.96   93.16      80   93.16      85   93.03
      90   92.84      95   92.91  98.127   92.85
#Mann= 1 ,-1 , 0 
       0     .03       0
Bank Sta=19.185,79.96
XS Rating Curve= 0 ,0
XS HTab Horizontal Distribution= 5 , 5 , 5 
Exp/Cntr=0.3,0.1

River Reach=Odra            ,gorny           
Reach XY= 4 
         324411.   392195.305535         324239.         392416.
         324058.         392628.324022.359277679 392742.46155053
Rch Text X Y=324313.8398194,392332.0945389
Reverse River Text= 0 

Type RM Length L Ch R = 1 ,1008    ,284.933,357.785,303.586
XS GIS Cut Line=4
323336.225964796392166.451483349         324207.         392230.
         324416.         392390. 324553.58219981392428.839170314
Node Last Edited Time=Oct-08-2015 08:50:15
#Sta/Elev= 256 
       0   105.8       5  103.83      10  101.64      15   99.96      20   98.47
      25      97      30   96.04      35   95.02      40   93.96      45      93
      50    92.5      55   92.94      60   93.03      65   93.04      70   93.11
      75   93.01      80   93.12      85   93.08      90   92.87      95   92.92
     100    92.7     105   91.89     110   92.39     115   92.51     120   92.93
     125   93.41     130   93.44     135   93.05     140   93.12     145   92.86
     150    92.7     155   93.34     160      94     165   93.97     170   93.47
     175   93.32     180   93.22     185   93.18     190    93.2     195   93.27
     200   93.52     205   93.59     210   93.51     215   93.84     220   93.56
     225   93.26     230   93.23     235   92.82     240   92.68     245   92.82
     250   92.88     255      93     260   93.18     265   93.15     270   93.22
     275   93.11     280   93.12     285   93.05     290   93.05     295   92.95
     300   92.88     305   92.86     310    92.8     315   92.58     320   92.77
     325   92.37     330   92.04     335   92.16     340   92.27     345   92.16
     350   92.17     355    92.2     360   92.15     365   92.21     370   92.28
     375   92.27     380   92.44     385   92.52     390    92.8     395   92.83
     400   92.75     405   92.75     410    92.8     415   92.62     420   92.16
     425    91.9     430   91.57     435   91.49     440   91.58     445   91.66
     450   91.59     455   91.88     460   93.06     465   92.46     470   91.16
     475      91     480   91.14     485   91.62     490   91.83     500   91.97
     505   92.01     510   92.02     515   92.06     520   92.12     525   92.34
     530   92.31     535   92.34     540   92.44     545   92.51     550   92.36
     555   92.26     560   92.02     565   91.95     570   92.06     575   92.22
     580   92.24     585   92.35     590   92.39     595   92.44     600   92.48
     605   92.46     610   92.43     615   92.47     620   92.48     625   92.32
     630   92.35     635   92.47     640    92.5     645   92.47     650    92.5
     655   92.43     660    92.5     665   92.71     670   92.51     675   92.48
     680   92.83     685   92.49     690   92.69     695    92.7     700   92.89
     705   92.71     710   92.66     715   92.66     720   92.76     725   92.48
     730   92.48     735   92.39     740   92.47     745   92.63     750   92.51
     755   92.68     765   92.98     770   92.84     775   92.67     780   92.66
     785   92.71     790   92.81     795   92.94     800   92.75     805   92.62
     810   92.86     820   92.84     825   93.14     830   93.18     835    92.9
     840   93.04     845   92.67     850   92.87     855      93     860   92.89
     865   92.92     870   92.53 874.803   92.94 879.803   92.94 884.803   92.76
 889.803   92.65 892.791  92.668 894.803   92.68 899.803   92.77 904.803   92.76
 909.803   92.76 914.803   92.86 919.803   92.49 924.803   92.53 929.803   92.37
 934.803   93.42 939.803   93.59 944.803    93.6 946.883  93.517 949.803    93.4
 954.803   92.53 959.803   91.92 964.803   91.99 969.803   91.08 974.803   90.69
 979.803   89.52 984.803   88.94 989.803   87.88 994.803   86.28 999.803   86.44
1004.803   86.061009.803   86.071014.803   86.061019.803   86.071024.803   86.06
1039.803   86.061049.803   86.081054.803   87.881059.803   86.811064.803   86.82
1069.803   86.821074.803   86.621079.803   87.171084.803   87.351089.157  89.597
1089.803   89.93 1091.09   89.931094.803   89.931099.803   92.251104.803   93.08
1109.803   93.191114.803   93.881119.803   93.881124.803   93.951129.803    93.8
1134.803   93.891139.734   93.781144.734   93.651149.734   93.631154.734   93.49
1159.734   93.471164.734   93.481169.734   93.481174.734   93.221179.734   92.74
1184.734   92.651189.734   92.521194.734   92.981199.734   92.811204.734   92.64
1209.734   92.431214.734   92.471219.734   92.211224.734   92.241225.671  92.137
1229.734   91.691234.734   92.171239.734   92.951244.734   93.321249.734   93.18
1254.734   93.171259.734   94.341264.734    95.91269.734   96.661274.734   95.02
1278.996   94.27
#Mann= 4 ,-1 , 0 
       0     .01       0 892.791     .02       01089.157     .03       0
1225.671     .05       0
Levee=0,,,-1,1271.531,0,,1
#XS Ineff= 1 ,-1 
       0 122.511       0
Permanent Ineff=
       F
#Block Obstruct= 1 ,-1 
1168.7291278.996       0
Bank Sta=946.883,1091.09
XS Rating Curve= 0 ,0
XS HTab Horizontal Distribution= 5 , 5 , 5 
Exp/Cntr=0.3,0.1

Type RM Length L Ch R = 1 ,650     ,444.18,352.805,278.345
XS GIS Cut Line=4
         323305.         392364.324032.273328949392546.281190902
324139.245082443 392628.39027155         324486.         392721.
Node Last Edited Time=Oct-08-2015 08:50:15
#Sta/Elev= 253 
       0  103.47       5  102.23      10   102.3      15   100.6      20   98.85
      25   96.01      30   93.95      35   93.25      40   93.03      45   92.49
      50   92.58      55   92.35      60   92.16      65   91.57      70   92.01
      75   91.82      80   91.86      85   91.92      90   91.92      95   91.72
     100   91.59     105    91.7     110   91.69     115   91.65     120   91.39
     125   91.67     130   91.67     135   91.72     140   91.77     145   91.75
     150   91.74     155   91.67     160   91.71     165   91.74     170   91.73
     175   91.88     180      92     185   92.09     190   92.09     195   92.19
     200   92.19     205   92.08     210   92.28     215    92.1     220    92.1
     225   92.09     230   92.15     235   92.06     240   92.08     245   91.98
     250    91.9     255   91.74     260    91.8     265   91.81     270   91.74
     275   91.72     280   91.24     285   91.61     290   91.35     295   91.44
     300    92.2     305   92.49     310   93.28     315   93.62     320   93.61
     325    93.4     330   93.52     335    93.1     340   93.29     345   93.75
     350    94.1     355   93.55     360   94.02     365   93.36     370   93.51
     375   93.51     380   93.62     385   93.62     390   93.72     395   93.77
     400   93.51     405   93.72     410   93.58     415    93.7     420   94.13
     425   93.91     430   93.82     435   93.81     440   93.78     445    93.6
     450   93.51     455   93.49     460    93.4     465    93.5     470    93.5
     475   93.32     480   93.32     485   93.69     490   93.72     495   93.69
     500   93.84     505   93.77     510   93.47     515   93.47     520   93.24
     525   93.33     530   93.29     535    93.4     540      93     545   92.89
     550   92.89     555   92.98     560    92.7     565   93.14     570   92.87
     575   93.02     580   93.18     585      93     590   92.98     595   92.87
     600   92.73     605   92.68     610   92.71     615   92.82     620   92.68
     625   92.82     630   92.85     635   92.75     640   92.88     645   92.83
     650   92.88     655   92.48     660    92.5     665    92.6     670   93.11
     675   93.15     680      93     685   93.15     690   93.08     695   93.18
     700   93.23     705   92.77     710   92.91     715   92.87     720   92.87
     725   92.96     730   93.05     735   92.96     740   93.19     745   93.32
 749.982   93.07 754.982   92.43 756.925  91.843 759.982   90.92 764.982   89.89
 769.982   90.47 774.982   90.49 779.982   89.22 784.982   86.77 789.982   86.02
 794.982   85.98 804.982   85.98 809.982   85.99 819.982   86.01 824.982   85.99
 829.982   86.02 834.982   86.03 839.982   86.17 844.982   86.17 849.982   88.83
 854.982   89.62 859.982   91.33 864.982   91.74 869.982   91.74  873.18   91.67
 874.982   91.63 879.982   91.58 884.955   93.01 889.955   93.15 894.955   93.41
 899.955   94.39 904.955   94.13 909.955   94.01 914.955   93.75 917.494   93.75
 919.955   93.75 924.955   93.38 929.955   93.16 934.955    93.3 939.955   93.29
 944.955   93.23 949.955   93.32 954.955   93.19 959.955   93.04 964.955   93.06
 969.955   92.95 974.955   92.82 979.955   92.98 984.955   93.07 989.955   93.18
 994.955   93.24 999.955   93.241004.955   93.131009.955   93.081014.955   93.02
1019.955   93.131024.955   92.981029.955   92.991034.955   93.021039.955    93.2
1044.955   92.781049.955   92.931054.955   93.041059.955   92.911064.955   92.89
1069.955   92.891074.955   92.941079.955   92.911084.955   92.891089.955    92.9
1094.527  92.9181094.955   92.921099.955   92.941104.955   92.891109.955   92.91
1114.955    92.91119.955   92.931124.955   92.791129.955   92.371134.955   92.07
1139.955   92.061144.955   92.141149.955   92.391154.955   92.381159.955   92.29
1164.955    91.71169.955   91.231174.955   91.141179.955    91.31184.955   91.49
1189.955   91.171194.955   92.151199.955   92.241204.955   92.181209.955   92.31
1214.955   92.311219.955   93.831224.955   95.221225.514  95.3191229.955   96.11
1234.955   94.561239.955   93.721243.484   92.91
#Mann= 4 ,-1 , 0 
       0     .01       0 917.494     .02       01094.527     .03       0
1225.514     .05       0
Levee=0,,,-1,1228.253,0,,1
#XS Ineff= 1 ,-1 
       0 220.035       0
Permanent Ineff=
       F
#Block Obstruct= 1 ,-1 
1127.1241243.484       0
Bank Sta=756.925,873.18
XS Rating Curve= 0 ,0
XS HTab Horizontal Distribution= 5 , 5 , 5 
Exp/Cntr=0.3,0.1

River Reach=Odra            ,dolny           
Reach XY= 4 
324022.359277679 392742.46155053         324006.         392795.
         323997.         392993.         323992.         393221.
Rch Text X Y=324014.7694583,392862.0961629
Reverse River Text= 0 

Type RM Length L Ch R = 1 ,297     ,327.839,270.472,261.073
XS GIS Cut Line=2
         323325.         392863.         324468.         392966.
Node Last Edited Time=Oct-08-2015 08:50:15
#Sta/Elev= 233 
       0  103.87       5  104.12      10  104.26      15  103.88      20  103.83
      25  103.56      30  102.45      35  101.77      40  101.37      45  100.44
      50  100.79      55  100.03      60   99.01      65   98.05      70   96.78
      75   95.65      80   94.09      85   92.76      95   92.38     100   92.43
     105   92.49     110   92.06     115    92.3     120   91.71     125   91.48
     130   92.33     135    93.1     140   91.59     145    89.4     150   89.04
     155   89.14     160   89.15     165   89.15     170   89.21     175   89.19
     180   89.17     185   89.12     190   89.08     195   89.24     200   89.41
     205   90.06     210   90.43     215   90.34     220   90.69     225   90.92
     230   91.15     235   91.24     240    91.3     245   91.28     250   91.53
     255   91.63     260   91.98     265    92.1     270    91.9     275   91.96
     280   91.86     285   91.78     290    91.8     295   91.95     300   91.96
     305   92.07     310   92.07     315   91.84     320   91.77     325   91.54
     330   91.63     335   91.56     340   91.61     345   91.83     350   91.68
     355   91.48     360   91.56     365    92.7     370   92.95     375   92.95
     380   92.63     385   92.56     390   92.25     395   92.08     400   92.04
     405   92.11     410   92.19     415   92.16     420   92.22     425   91.89
     430   92.14     435   91.98     440   92.21     445   92.85     450   92.87
     455   92.76     460   92.67     465   92.81     470   92.63     475   92.77
     480   92.78     485    92.7     490   92.59     495   92.73     500   92.67
     505   92.59     510   92.63     515   92.63     520   92.68     525   92.76
     530   92.71     535   92.61     540   92.63     545   92.94     550   92.78
     555   93.04     560   93.17     565   93.16     570   92.64     575   92.91
     580   92.97     585   92.95 586.761  92.897     590    92.8     595   92.84
     600   90.58     605   90.57     610   90.09     615   88.92     620   88.05
     625   86.48     630   86.01     635   85.88     640   85.85     650   85.87
     655   85.88     660   85.87     665   85.86     675   85.86     680   85.84
     685   85.86     690   85.86     695   87.54     700   90.02     705   91.58
     710   92.43     715   91.81     720   90.88     725   91.57 725.603  91.571
     730   91.58     735   91.62     740   92.46     745   92.81     750   92.98
     755    92.6     760   92.27     765   92.06     770   91.73     775   92.21
     780   92.84     785   92.91     790   92.88     795    92.9     800   92.96
     805   92.88     810   92.83 810.134  92.831     815   92.88     820   92.78
     825   92.64     830   92.67     835   92.56     840   92.69     845   92.64
     850   92.63     855   92.66     860   92.64     865   92.63     870   92.58
     875   92.43     880   92.46     885   92.95     890      93     895   92.91
     900   93.03     905   93.02     910   92.76     915   92.56     920   92.58
     925   92.54     930   92.67     935   92.69     940   92.49     945   92.67
     950   92.81     955   92.83     960   92.91     965   92.94     970   93.04
     975   92.99     980   92.89     985   92.78     990   92.68 990.328  92.679
     995   92.67    1000   92.21    1005   92.27    1010   92.17    1015   92.09
    1020   91.53    1025   91.29    1030   91.47    1035   91.53    1040   91.51
    1045   91.52    1050   91.42    1055   91.65    1060   91.74    1065   91.96
    1070   91.42    1075   91.61    1080   91.88    1085   91.46    1090   91.35
    1095   92.07    1100   92.18    1105   92.02    1110   92.28    1115   93.16
    1120   94.79    1125   95.88    1130   95.191130.697  95.083    1135   94.42
    1140   93.58    1145   93.291147.631   93.29
#Mann= 4 ,-1 , 0 
       0     .01       0 810.134     .02       0 990.328     .03       0
1130.697     .04       0
Levee=0,,,-1,1127.195,0,,1
#XS Ineff= 1 ,-1 
       0 334.464       0
Permanent Ineff=
       F
Bank Sta=586.761,725.603
XS Rating Curve= 0 ,0
XS HTab Horizontal Distribution= 5 , 5 , 5 
Exp/Cntr=0.3,0.1

Type RM Length L Ch R = 1 ,27      ,0,0,0
XS GIS Cut Line=2
323785.783406284         393184.         324455.         393217.
Node Last Edited Time=Oct-08-2015 08:50:15
#Sta/Elev= 139 
       0   97.35       5    96.7      10   96.45      15   95.94      20   95.57
      25   95.06      30      95      35   94.86      40   94.48      45   93.89
      50   93.69      55   93.53      60   93.56      65   93.46      70   93.52
      75   93.66      80    93.7      85    93.6      90   93.62      95   93.47
     100   90.95     105    90.1     110   90.14     115   90.03     120   90.08
 123.434  90.279     125   90.37     130   90.42     135   89.42     140   89.54
     145   89.46     150   89.79     155   89.72     160   87.99     165   86.46
     170   85.83     180   85.81     185    85.8     190   85.81     195   85.79
     200   85.82     205   85.82     210   85.77     215   85.81     225   85.81
     230    85.8     235   85.82     240   87.74     245   89.61     250   91.44
     255   92.22     260   92.19     265   92.17 269.408  92.558     270   92.61
     275   92.66     280   93.05     285   93.17     290   92.76     295   93.16
     300   92.64     305   92.63     310   92.66 311.898  92.539     315   92.34
     320   92.04     325    92.3     330   92.64     335   92.66     340    92.7
     345   92.86     350   92.77     355   92.84     360   92.71     365   92.59
     370   92.56     375    92.6     380   92.61     385   92.65     390   92.72
     395   92.58     400   92.55     405   92.62     410   92.42     415   92.34
     420   92.18     425   92.08     430   92.01     435   91.98     440   91.53
     445   91.39     450   92.32     455   92.86     460   92.76     465    92.6
     470   92.51     475   92.45     480    92.3     485   92.26     490   92.26
     495    92.2 496.853  92.241     500   92.31     505   92.23     510   92.45
     515   92.31     520   92.19     525   92.17     530   92.32     535   92.11
     540   92.15     545   91.79     550   91.86     555   92.19     560   91.72
     565   91.43     570   92.08     575    92.1     580   92.11     585   92.28
     590   92.13     595   92.03     600   91.74     605   92.13     610   92.72
     615   92.93     620   92.82     625   92.51     630   92.81     635    93.5
     640   95.01     645   96.08     650   94.73 651.635  94.531     655   94.12
     660   92.71     665   92.13     670   92.12  670.03   92.12
#Mann= 4 ,-1 , 0 
       0     .01       0 311.898     .02       0 496.853     .03       0
 651.635     .04       0
Levee=0,,,-1,646.38,0,,1
Bank Sta=123.434,269.408
XS Rating Curve= 0 ,0
XS HTab Horizontal Distribution= 5 , 5 , 5 
Exp/Cntr=0.3,0.1

LCMann Time=Dec-30-1899 00:00:00
LCMann Region Time=Dec-30-1899 00:00:00
LCMann Table=0
Chan Stop Cuts=-1 



Use User Specified Reach Order=0
GIS Units=METERS
GIS DTM Type=GRID
GIS DTM=
GIS Stream Layer=rivergis@sr101538/example/StreamCenterlines
GIS Cross Section Layer=rivergis@sr101538/example/XSCutLines
GIS Map Projection=
GIS Projection Zone=
GIS Datum=
GIS Vertical Datum=
GIS Data Extents=323305,392166.4514833,324993.2380133,393217

GIS Ratio Cuts To Invert=-1
GIS Limit At Bridges=0
Composite Channel Slope=5
