Geom Title=
Program Version=5.00
Viewing Rectangle= 323278.363470952 , 325072.093930381 , 393231.545485167 , 392155.905998183 

Junct Name=3               
Junct Desc=, 0 , 0 ,-1 ,0
Junct X Y & Text X Y=324539,392790,324539,392790
Up River,Reach=Doplyw A        ,gorna czesc     
Up River,Reach=Doplyw B        ,testowy         
Dn River,Reach=Doplyw A        ,dolna czesc     
Junc L&A=,0
Junc L&A=0,0

Junct Name=2               
Junct Desc=, 0 , 0 ,-1 ,0
Junct X Y & Text X Y=324022.3592777,392742.4615505,324022.3592777,392742.4615505
Up River,Reach=Doplyw A        ,dolna czesc     
Up River,Reach=Odra            ,gorny           
Dn River,Reach=Odra            ,dolny           
Junc L&A=0,0
Junc L&A=118.256,0

River Reach=Doplyw A        ,gorna czesc     
Reach XY= 7 
325048.835600379392182.454607042324950.220163651392304.297347291
324814.576844908392338.003569935324717.451037107392462.035021885
324675.580414843392607.905644149324564.097925785392727.129377736
         324539.         392790.
Rch Text X Y=324921.3767003,392334.3409553
Reverse River Text= 0 

Type RM Length L Ch R = 1 ,1205.805,101.246,120.846,113.023
XS GIS Cut Line=2
324697.218092152392174.616040924325054.508337641392347.070451005
Node Last Edited Time=Oct-30-2015 16:12:43
#Sta/Elev= 43 
       0   92.83      10   92.83      20   93.01      30    92.9      40   92.71
      50   92.58      60   92.66      70   92.72      80   92.69      90   92.36
     100   92.31     110   92.34     120   92.35     130   92.34     140   92.27
     150   92.44     160      93     170   92.99     180   92.81     190   92.54
     200   92.47     210   92.47     220   92.29     230   92.14     240   92.58
     250   92.67 252.162  92.713     260   92.87     270   92.64     280   91.13
     290   91.01     300   90.89     310   90.88     320   90.89 325.158  91.927
     330    92.9     340    93.1     350   93.32     360    93.4     370   93.03
     380   92.94     390    93.1 396.733    93.1
#Mann= 0 , 0 , 0 
Bank Sta=252.162,325.158
XS Rating Curve= 0 ,0
XS HTab Horizontal Distribution= 5 , 5 , 5 
Exp/Cntr=0.3,0.1

Type RM Length L Ch R = 5 ,1124.895,,,
Node Name=Inline A
Node Last Edited Time=Oct-30-2015 16:12:33
IW Pilot Flow=0
#Inline Weir SE= 23 
       0   92.45      10   92.62      20   92.33      30   92.51      40   92.25
      50   92.28      60   92.39      70   92.37      80    92.1      90   91.77
     100   91.93     110   90.95     120    92.1     130   91.86     140   91.77
     150   92.74     160    92.6     170   90.99     180   90.89     190    90.9
     200   91.67     210   92.24 212.905   92.24
IW Dist,WD,Coef,Skew,MaxSub,Min_El,Is_Ogee,SpillHt,DesHd
55,5,1.4,0,0.98,, 0 ,,,0,0,
Inline Weir Flap Gates= 0 

Type RM Length L Ch R = 1 ,1049.592,111.287,113.053,100.352
XS GIS Cut Line=2
         324561.         392214.324993.238013326392443.318089437
Node Last Edited Time=Oct-30-2015 16:12:43
#Sta/Elev= 52 
       0   91.91      10    93.2      20    93.5      30   95.42      40   94.84
      50   94.84      60   93.22      70   92.84      80   92.73      90   92.49
     100   92.68     110   92.66     120   92.76     130   92.98     140   93.37
     150   92.63     160   92.03     170   92.07     180   92.07     190   93.01
     200   93.07     210   92.93     220   92.81     230   92.76 239.936  92.621
     240   92.62     250   92.37     260   92.39     270   92.28     280   90.21
 281.285  90.387     290   91.59     300   92.64     310   92.62     320   92.78
     330   92.63     340   92.66     350   92.55     370   92.55     380   92.27
     390   92.47 390.871  92.479     400   92.57     410   92.23     420   92.35
     430    92.2     440   92.18     450   92.82     460   92.82     470   92.86
     480   92.89 489.302   93.02
#Mann= 2 ,-1 , 0 
       0     .05       0 239.936     .06       0
Bank Sta=281.285,390.871
XS Rating Curve= 0 ,0
XS HTab Horizontal Distribution= 5 , 5 , 5 
Exp/Cntr=0.3,0.1

Type RM Length L Ch R = 1 ,939.9721,148.4,138.106,121.419
XS GIS Cut Line=2
324547.598852949392338.390494075324939.932906169392527.613555141
Node Last Edited Time=Oct-30-2015 16:12:43
#Sta/Elev= 47 
       0   93.19      10   95.89      20   95.89      30   94.95      40    93.6
      50   93.27      60   93.09      70   93.29      80   93.18      90   93.28
     100   93.46     110   93.27     120   93.27     130   93.29     140    93.2
     150   93.13     160   93.38     170   90.78     180   90.03  187.89  90.038
     190   90.04     200   90.73     210   90.14     220   90.24     230   92.46
     240   92.85     250   92.82     260   92.87 261.927  92.857     270    92.8
     280   92.81     290   92.87     300   92.93     310   92.77     320   92.82
     330   92.56     340   92.59     350   92.53     360   92.24     370   92.31
     380   92.68     390   92.68     400    92.6     410    92.6     420   92.79
     430    93.1 435.582    92.7
#Mann= 0 , 0 , 0 
Bank Sta=187.89,261.927
XS Rating Curve= 0 ,0
XS HTab Horizontal Distribution= 5 , 5 , 5 
Exp/Cntr=0.3,0.1

Type RM Length L Ch R = 1 ,800.2770,65.844,73.49,113.454
XS GIS Cut Line=2
         324502.         392496.324911.849880119392634.423155092
Node Last Edited Time=Oct-30-2015 16:12:43
#Sta/Elev= 48 
       0   92.82      10   93.02      20   96.19      30   94.84      40   93.39
      50   93.27      60   93.28      70   93.15      80   92.78      90   92.66
     100    92.6     110    92.7     120    92.7     130   92.73     140   92.83
     150   93.08     160   92.82 168.539  92.666     170   92.64     180   92.18
     190   92.32     200   90.04 205.871  90.052     210   90.06     220   90.64
     230   91.91  233.72  92.375     240   93.16     250   93.31     260   93.27
     270   93.12     280   93.05     290   92.94     300    92.9     310   92.68
     320   92.43     330    92.4     340   92.44     350   92.52     360   92.56
     370    92.7     380    92.8     390   93.02     400   93.01     410   93.42
     420    93.4     430    93.5 432.594    93.5
#Mann= 2 ,-1 , 0 
       0     .05       0 205.871     .06       0
#Block Obstruct= 1 ,-1 
       0  75.303       0
Bank Sta=168.539,233.72
XS Rating Curve= 0 ,0
XS HTab Horizontal Distribution= 5 , 5 , 5 
Exp/Cntr=0.3,0.1

Type RM Length L Ch R = 1 ,727.8699,114.053,134.348,156.177
XS GIS Cut Line=3
324497.255102757392565.805365632324634.398422245 392609.20515028
324839.245405785392723.780581752
Node Last Edited Time=Oct-30-2015 16:12:43
#Sta/Elev= 41 
       0   94.85      10   96.11      20   93.19      30   92.98      40   92.98
      50    92.9      60   92.76      70   92.66      80   92.62      90   92.84
     100   93.01     110   92.91     120   92.83     130   92.77 139.036  92.725
     140   92.72 149.951   92.23 159.951   90.31 169.951   90.09 179.951   90.09
 189.951   90.66 199.951    91.2 209.951   92.58 210.536    92.6 219.951   92.92
 229.951   92.93 239.951   93.33 249.951   93.21 259.951   93.13 269.951   92.96
 279.951   92.93 289.951   92.74 299.951   92.37 309.951   92.61 319.951   92.93
 329.951   93.24 339.951    92.9 349.951   93.12 359.951   93.09 369.951    93.2
  378.51   93.02
#Mann= 0 , 0 , 0 
Bank Sta=139.036,210.536
XS Rating Curve= 0 ,0
XS HTab Horizontal Distribution= 5 , 5 , 5 
Exp/Cntr=0.3,0.1

Type RM Length L Ch R = 3 ,678.2275,,,
Node Name=A2 Bridge
Node Last Edited Time=Oct-30-2015 16:12:33
Bridge Culvert--1,0,-1,-1, 0 
Deck Dist Width WeirC Skew NumUp NumDn MinLoCord MaxHiCord MaxSubmerge Is_Ogee
38,5,1.4,0, 8, 8, , , 0.98, 0, 0,0,,
       0      10      20      30      40      50      60  69.081
   92.91   92.77   90.31   90.31    90.1   90.71   92.69   92.75
                                                                
       0      10      20      30      40      50      60  69.081
   92.91   92.77   90.31   90.31    90.1   90.71   92.69   92.75
                                                                
BR Coef=-1 , 0 , 0 ,, 0 ,,,0.8,-1,,0,
WSPro=,,,, 1 ,,,, 0 ,,,, 0 ,,,,-1 ,-1 ,-1 , 0 , 0 , 0 , 0 , 0 
BC Design=,, 0 ,, 0 ,,,,,,
BC Use User HTab Curves=0
BC User HTab FreeFlow(D)= 0 

Type RM Length L Ch R = 1 ,598.1222,80.191,110.272,136.07
XS GIS Cut Line=2
         324540.         392695.         324628.         392760.
Node Last Edited Time=Oct-30-2015 16:12:43
#Sta/Elev= 15 
       0   92.65      10   92.82  12.803  92.629      20   92.14      30   90.09
      40   90.18   46.81  91.508      50   92.13      60   92.69      70    92.7
      80   92.98  82.854  92.954      90   92.89     100   93.02 109.403   93.01
#Mann= 2 ,-1 , 0 
       0     .05       0   46.81     .06       0
Bank Sta=12.803,82.854
XS Rating Curve= 0 ,0
XS HTab Horizontal Distribution= 5 , 5 , 5 
Exp/Cntr=0.3,0.1

Type RM Length L Ch R = 6 ,429.6809,,,
Node Name=Left lateral on
Node Last Edited Time=Oct-30-2015 16:12:33
Lateral Weir Pos= 3 
Lateral Weir End=                ,                ,        ,                
Lateral Weir Distance=97
Lateral Weir TW Multiple XS=0
Lateral Weir WD=5
Lateral Weir Coef=1.1
Lateral Weir WSCriteria=-1 
Lateral Weir Flap Gates= 0 
Lateral Weir Hagers EQN= 0 ,,,,,
Lateral Weir SS=0.05,0.05,
Lateral Weir Type= 0 
Lateral Weir Connection Pos and Dist= 3 ,
Lateral Weir SE= 13 
       0    90.6      10   90.73      20   90.06      30   90.07      40   90.06
      50   90.05      60      90  69.949   91.71  79.949   90.12  89.949   90.13
  99.949   90.05 109.949   92.57 119.979   91.33
Lateral Weir Centerline= 0 
LW Div RC= 0 ,False,

River Reach=Doplyw B        ,testowy         
Reach XY= 5 
324741.255185536393041.643318743324652.741244529         392964.
324617.955235772392910.181631175324601.902074215392855.419585157
         324539.         392790.
Rch Text X Y=324690.6913892,392978.7324891
Reverse River Text= 0 

Type RM Length L Ch R = 1 ,305.6844,191.26,231.997,261.932
XS GIS Cut Line=2
         324759.         392945.         324690.         393101.
Node Last Edited Time=Oct-30-2015 16:12:43
#Sta/Elev= 21 
       0   92.05      10   92.37      20   91.76      30   91.87  38.131  92.024
      40   92.06      50   92.01      60   92.16      70   92.32   72.92  92.326
      80   92.34      90   91.02     100   91.71     110   91.67     120   91.97
     130   91.95     140   90.91     150   92.11     160   92.29     170    92.3
 170.578    92.3
#Mann= 2 ,-1 , 0 
       0     .06       0   72.92     .04       0
Bank Sta=38.131,140
XS Rating Curve= 0 ,0
XS HTab Horizontal Distribution= 5 , 5 , 5 
Exp/Cntr=0.3,0.1

Type RM Length L Ch R = 5 ,280.9087,,,
Node Name=Inline B
Node Last Edited Time=Oct-30-2015 16:12:33
IW Pilot Flow=0
#Inline Weir SE= 5 
       0   92.29      10   92.33      20   91.76      30   91.47  32.723   91.47
IW Dist,WD,Coef,Skew,MaxSub,Min_El,Is_Ogee,SpillHt,DesHd
15,3,1.4,0,0.98,, 0 ,,,0,0,
Inline Weir Flap Gates= 0 

Type RM Length L Ch R = 1 ,74.13189,0,0,0
XS GIS Cut Line=2
         324637.         392813.         324516.         392892.
Node Last Edited Time=Oct-30-2015 16:12:43
#Sta/Elev= 19 
       0   92.94      10   92.96      20   92.83      30   92.82      40   91.19
  41.482  91.194      50   91.22  57.582  91.273      60   91.29      70   91.05
      80   92.01      90   92.69     100   92.81     110   92.69 117.798   92.69
     120   92.69     130   92.68     140   92.79 144.506   92.69
#Mann= 2 ,-1 , 0 
       0     .06       0  57.582     .04       0
Bank Sta=41.482,117.798
XS Rating Curve= 0 ,0
XS HTab Horizontal Distribution= 5 , 5 , 5 
Exp/Cntr=0.3,0.1

River Reach=Doplyw A        ,dolna czesc     
Reach XY= 2 
         324539.         392790.324022.359277679 392742.46155053
Rch Text X Y=324409.8398194,392778.1153876
Reverse River Text= 0 

Type RM Length L Ch R = 1 ,477.6352,76.291,76.996,77.47
XS GIS Cut Line=2
         324499.         392736.         324497.         392835.
Node Last Edited Time=Oct-30-2015 16:12:43
#Sta/Elev= 24 
       0   92.22       5   91.69      10   91.05  13.018  90.827      15   90.68
      20   90.36      25   89.84      30   89.79      35   89.75      40   89.76
  40.528  89.762      45   89.78      50   89.79      55   89.92      60   90.14
      65   90.53      70   90.67  74.705  90.877      75   90.89      80   91.01
      85   91.62      90   92.06      95   92.28   99.02   92.24
#Mann= 2 ,-1 , 0 
       0     .05       0  40.528     .04       0
Bank Sta=13.018,74.705
XS Rating Curve= 0 ,0
XS HTab Horizontal Distribution= 5 , 5 , 5 
Exp/Cntr=0.3,0.1

Type RM Length L Ch R = 3 ,426.1477,,,
Node Name=A1 Bridge
Node Last Edited Time=Oct-30-2015 16:12:33
Bridge Culvert--1,0,-1,-1, 0 
Deck Dist Width WeirC Skew NumUp NumDn MinLoCord MaxHiCord MaxSubmerge Is_Ogee
30,3,1.4,0, 14, 14, , , 0.98, 0, 0,0,,
       0       5      10      15      20      25      30      35      40      45
      50      55      60  60.063
   92.36   92.23   92.23   92.22   92.45   92.62   92.93   92.95   93.14   93.35
   93.45   93.63   93.72   93.72
                                                                                
                                
       0       5      10      15      20      25      30      35      40      45
      50      55      60  60.063
   92.36   92.23   92.23   92.22   92.45   92.62   92.93   92.95   93.14   93.35
   93.45   93.63   93.72   93.72
                                                                                
                                
BR Coef=-1 , 0 , 0 ,, 0 ,,,0.8,-1,,0,
WSPro=,,,, 1 ,,,, 0 ,,,, 0 ,,,,-1 ,-1 ,-1 , 0 , 0 , 0 , 0 , 0 
BC Design=,, 0 ,, 0 ,,,,,,
BC Use User HTab Curves=0
BC User HTab FreeFlow(D)= 0 

Type RM Length L Ch R = 1 ,401.0212,0,0,0
XS GIS Cut Line=2
         324424.         392734.         324419.         392832.
Node Last Edited Time=Oct-30-2015 16:12:43
#Sta/Elev= 23 
       0   91.45       5   91.54      10   91.67      15   92.57  19.185  92.453
      20   92.43      25   92.38      30   93.11      35    93.3      40   93.09
      45   92.91      50   92.86      55   93.59      60   93.03      65   93.44
      70   93.29      75    93.2   79.96   93.16      80   93.16      85   93.03
      90   92.84      95   92.91  98.127   92.85
#Mann= 1 ,-1 , 0 
       0     .03       0
Bank Sta=19.185,79.96
XS Rating Curve= 0 ,0
XS HTab Horizontal Distribution= 5 , 5 , 5 
Exp/Cntr=0.3,0.1

River Reach=Odra            ,gorny           
Reach XY= 4 
         324411.   392195.305535         324239.         392416.
         324058.         392628.324022.359277679 392742.46155053
Rch Text X Y=324313.8398194,392332.0945389
Reverse River Text= 0 

Type RM Length L Ch R = 1 ,1008.167,59.79,84.96,66.507
XS GIS Cut Line=4
323336.225964796392166.451483349         324207.         392230.
         324416.         392390. 324553.58219981392428.839170314
Node Last Edited Time=Oct-30-2015 16:12:43
#Sta/Elev= 256 
       0   105.8       5  103.83      10  101.64      15   99.96      20   98.47
      25      97      30   96.04      35   95.02      40   93.96      45      93
      50    92.5      55   92.94      60   93.03      65   93.04      70   93.11
      75   93.01      80   93.12      85   93.08      90   92.87      95   92.92
     100    92.7     105   91.89     110   92.39     115   92.51     120   92.93
     125   93.41     130   93.44     135   93.05     140   93.12     145   92.86
     150    92.7     155   93.34     160      94     165   93.97     170   93.47
     175   93.32     180   93.22     185   93.18     190    93.2     195   93.27
     200   93.52     205   93.59     210   93.51     215   93.84     220   93.56
     225   93.26     230   93.23     235   92.82     240   92.68     245   92.82
     250   92.88     255      93     260   93.18     265   93.15     270   93.22
     275   93.11     280   93.12     285   93.05     290   93.05     295   92.95
     300   92.88     305   92.86     310    92.8     315   92.58     320   92.77
     325   92.37     330   92.04     335   92.16     340   92.27     345   92.16
     350   92.17     355    92.2     360   92.15     365   92.21     370   92.28
     375   92.27     380   92.44     385   92.52     390    92.8     395   92.83
     400   92.75     405   92.75     410    92.8     415   92.62     420   92.16
     425    91.9     430   91.57     435   91.49     440   91.58     445   91.66
     450   91.59     455   91.88     460   93.06     465   92.46     470   91.16
     475      91     480   91.14     485   91.62     490   91.83     500   91.97
     505   92.01     510   92.02     515   92.06     520   92.12     525   92.34
     530   92.31     535   92.34     540   92.44     545   92.51     550   92.36
     555   92.26     560   92.02     565   91.95     570   92.06     575   92.22
     580   92.24     585   92.35     590   92.39     595   92.44     600   92.48
     605   92.46     610   92.43     615   92.47     620   92.48     625   92.32
     630   92.35     635   92.47     640    92.5     645   92.47     650    92.5
     655   92.43     660    92.5     665   92.71     670   92.51     675   92.48
     680   92.83     685   92.49     690   92.69     695    92.7     700   92.89
     705   92.71     710   92.66     715   92.66     720   92.76     725   92.48
     730   92.48     735   92.39     740   92.47     745   92.63     750   92.51
     755   92.68     765   92.98     770   92.84     775   92.67     780   92.66
     785   92.71     790   92.81     795   92.94     800   92.75     805   92.62
     810   92.86     820   92.84     825   93.14     830   93.18     835    92.9
     840   93.04     845   92.67     850   92.87     855      93     860   92.89
     865   92.92     870   92.53 874.803   92.94 879.803   92.94 884.803   92.76
 889.803   92.65 892.791  92.668 894.803   92.68 899.803   92.77 904.803   92.76
 909.803   92.76 914.803   92.86 919.803   92.49 924.803   92.53 929.803   92.37
 934.803   93.42 939.803   93.59 944.803    93.6 949.803    93.4 954.803   92.53
 959.803   91.92 964.803   91.99 969.803   91.08 974.803   90.69 979.803   89.52
 984.803   88.94 989.803   87.88 991.715  87.268 994.803   86.28 999.803   86.44
1004.803   86.061009.803   86.071014.803   86.061019.803   86.071024.803   86.06
1039.803   86.061049.803   86.081054.803   87.881059.803   86.811064.803   86.82
1069.803   86.821074.803   86.621079.803   87.171081.297  87.2241084.803   87.35
1089.157  89.5971089.803   89.931094.803   89.931099.803   92.251104.803   93.08
1109.803   93.191114.803   93.881119.803   93.881124.803   93.951129.803    93.8
1134.803   93.891139.734   93.781144.734   93.651149.734   93.631154.734   93.49
1159.734   93.471164.734   93.481169.734   93.481174.734   93.221179.734   92.74
1184.734   92.651189.734   92.521194.734   92.981199.734   92.811204.734   92.64
1209.734   92.431214.734   92.471219.734   92.211224.734   92.241225.671  92.137
1229.734   91.691234.734   92.171239.734   92.951244.734   93.321249.734   93.18
1254.734   93.171259.734   94.341264.734    95.91269.734   96.661274.734   95.02
1278.996   94.27
#Mann= 4 ,-1 , 0 
       0     .01       0 892.791     .02       01089.157     .03       0
1225.671     .05       0
#XS Ineff= 1 ,-1 
       0 122.511       0
Permanent Ineff=
       F
#Block Obstruct= 1 ,-1 
1168.7291278.996       0
Bank Sta=991.715,1081.297
XS Rating Curve= 0 ,0
XS HTab Horizontal Distribution= 5 , 5 , 5 
Exp/Cntr=0.3,0.1

Type RM Length L Ch R = 1 ,923.1559,82.466,142.782,142.515
XS GIS Cut Line=5
323315.044968938392202.983165972323874.034195208392265.478855866
324137.904885869392298.462692198324358.375791882392442.549977231
324544.126870177392494.629718809
Node Last Edited Time=Oct-30-2015 16:12:43
#Sta/Elev= 250 
       0  107.42       5  105.49      10  104.08      15   102.3      20  101.56
      25   100.5      30   99.19      35   96.54      40   94.49      45   93.32
      50   92.95      55   92.97      60   92.55      65   92.74      70   92.41
      75   92.58      80   92.92      85   92.68      90   92.13      95   92.58
     100    91.7     105   91.67     110   92.75     115   92.72     120   92.65
     125   92.75     130    92.9     135   93.12     140   92.48     145   92.76
     150   93.18     155   93.16     160   93.54     165   93.39     170   93.46
     175   93.42     180   93.46     185   93.11     190   93.33     195   93.33
     200   93.35     205   93.08     210      93     215   92.84     220   92.74
     225   93.15     230   92.75     235   92.67     240   92.51     245   92.69
     250   92.69     255   92.67     260   92.77     265   92.73     270   92.46
     275   91.78     280   91.94     285   91.98     290   91.96     295    92.1
     305   92.04     310   92.03     315   92.03     320   92.02     325   92.03
     330   92.16     335   92.09     340   91.98     345   92.25     350   92.31
     355   92.41     360   92.19     365   92.18     370   92.13     375   92.14
     380   92.43     385   92.32     390   92.35     395   91.76     400   92.48
     405   92.41     410   91.37     415   92.08     420    92.1     425   91.18
     430   91.44     435   91.48     440   91.53     445   91.43     450   91.56
     455   91.49     460   91.57     465   91.57     470   91.68     475   91.72
     480   91.69     485    91.8     490   91.87     495   91.88     500   92.04
     505   92.08     510      92     515   92.31     520   92.44     525   92.51
     530    92.6     535   92.65     545   92.57     550   92.52     555   92.44
     560    92.5     565   92.57     570   92.59     575   92.55     580    92.6
     585   92.55     590   92.62     595   92.63     600   92.61     605   92.67
     615   92.69     620   92.72     625   92.71     630   92.78     635   92.81
     640   92.78     645   92.81     650   92.73     655   92.76     660   92.65
     665   92.64     670   92.67     675   92.78     680   92.77     685   92.75
     690   92.84     700   92.86     705   92.82     710   92.51     715    92.3
     720   92.77     725    92.7     730   92.25     735   92.05     740   92.13
     745   92.32     750   92.43     755    92.6     760   92.34     765   92.76
     770   92.05     775   92.56     780   92.99     785   92.88     790    92.9
     795    92.9     800   92.98     805   93.03     810   92.87     815   92.99
     820   93.04     825    92.9 829.888   93.01 834.888   92.61 839.888   92.29
 844.888   92.91 849.888   92.75 854.888   92.92 859.888    93.1 864.888   92.83
 869.888   92.79 874.888   92.78 879.888   92.32 884.888   92.27 889.888   92.82
 894.888   92.96 899.888   93.42 904.888   93.43 909.888   93.17 914.888   92.58
 919.888    91.8 924.888   91.69 934.888   91.69 939.888   91.43 944.888   90.68
  947.63  89.506 949.888   88.54 954.888   86.09 959.888   86.11 964.888   86.09
 979.888   86.09 984.888   86.08 989.888   86.09 999.888   86.091004.888   86.08
1009.888   86.081014.888    86.11019.888    86.11024.888   86.091039.888   86.09
1044.888   86.111049.888   86.111054.888    86.91059.888   89.041064.262  91.577
1064.888   91.941069.888   92.711074.888   93.741079.888   93.481084.888   93.48
1089.888   93.861094.835   93.621099.835   93.451104.835   93.481109.835   93.56
1114.835   93.711119.835   93.611124.835   93.491129.835   93.551134.835   93.57
1139.835   93.551144.835   93.521149.835   93.161154.835   92.691159.835   92.81
1164.835    92.71169.835   92.671174.835   92.661179.835   93.211184.835   92.87
1189.835   92.691194.835   92.491199.835   92.941204.835   92.971209.835    93.4
1214.835   92.881219.835   92.991224.835   93.141229.835   93.191234.835   92.16
1239.835   92.661244.835   92.831249.835   92.861254.835   93.351259.835   94.86
1264.835   96.271269.835   96.281274.835   94.831279.835   93.371284.524   93.29
#Mann= 0 , 0 , 0 
Bank Sta=947.63,1064.262
XS Rating Curve= 0 ,0
XS HTab Horizontal Distribution= 5 , 5 , 5 
Exp/Cntr=0.3,0.1

Type RM Length L Ch R = 3 ,831.6021,,,
Node Name=Odra 1
Node Last Edited Time=Oct-30-2015 16:12:33
Bridge Culvert--1,0,-1,-1, 0 
Deck Dist Width WeirC Skew NumUp NumDn MinLoCord MaxHiCord MaxSubmerge Is_Ogee
80,20,1.4,0, 33, 33, , , 0.98, 0, 0,0,,
       0       5      10      15      20      25      30      35      40      45
      50      55      60      65      70      75      80      85      90      95
     100     105     110     115     120     125     130     135     140     145
     150     155 156.889
   93.12    92.8   92.01   91.65   91.65   91.61   91.34   91.34   90.01   88.26
   86.73   86.27    86.1   86.11   86.11   86.12   86.13   86.13   86.14   86.16
   86.16   87.27   88.66    87.1   86.84   88.87   86.72   87.58   88.42   89.62
   89.56   92.36   92.36
                                                                                
                                                                                
                                                                                
                        
       0       5      10      15      20      25      30      35      40      45
      50      55      60      65      70      75      80      85      90      95
     100     105     110     115     120     125     130     135     140     145
     150     155 156.889
   93.12    92.8   92.01   91.65   91.65   91.61   91.34   91.34   90.01   88.26
   86.73   86.27    86.1   86.11   86.11   86.12   86.13   86.13   86.14   86.16
   86.16   87.27   88.66    87.1   86.84   88.87   86.72   87.58   88.42   89.62
   89.56   92.36   92.36
                                                                                
                                                                                
                                                                                
                        
BR Coef=-1 , 0 , 0 ,, 0 ,,,0.8,-1,,0,
WSPro=,,,, 1 ,,,, 0 ,,,, 0 ,,,,-1 ,-1 ,-1 , 0 , 0 , 0 , 0 , 0 
BC Design=,, 0 ,, 0 ,,,,,,
BC Use User HTab Curves=0
BC User HTab FreeFlow(D)= 0 

Type RM Length L Ch R = 1 ,780.4119,142.677,130.044,94.564
XS GIS Cut Line=5
323295.949063692392256.798898936323936.529885101392360.958382092
324044.161351029392397.414201197324276.784196744392565.805365632
324509.407042458392633.509029683
Node Last Edited Time=Oct-30-2015 16:12:43
#Sta/Elev= 251 
       0  103.58       5  102.71      10  102.04      15  101.68      20  100.61
      25  100.87      30  101.74      35   99.58      40   98.44      45    97.8
      50    96.4      55   94.15      60   93.28      65   92.41      70   91.66
      75   91.91      80    92.2      85   92.96      90   93.01      95   93.18
     100   93.02     105    92.9     110   92.51     115   93.04     120   93.13
     125   93.29     130   93.03     135   93.06     140   93.12     145   93.14
     150   93.02     155   93.07     160   93.14     165   92.99     170   92.59
     175   92.46     180   92.44     185   92.49     190   92.49     195   92.21
     200   91.95     205   92.04     210   92.35     215   92.19     220    91.8
     225   91.18     230      91     235   91.19     240   91.25     245   91.34
     250   91.03     255   91.16     260   91.38     265   91.38     270   91.67
     275   91.65     280    91.5     285   91.71     290   91.59     295    91.5
     300   91.65     305   91.61     310   91.49     315   91.73     320    91.8
     325   91.72     330   91.86     335   91.84     340   91.92     345   91.79
     350   91.76     355    91.8     360   91.77     365    91.9     370   91.74
     375   91.78     380   91.77     385   91.75     390   91.77     395   92.02
     400   91.95     405   91.76     410   91.74     415   91.87     420    91.8
     430   92.06     435   92.15     440   92.09     445   92.19     450   92.24
     455   92.14     460   92.37     465   92.38     475   92.32     480   92.25
     485   92.33     490   92.29     495    92.3     500   92.19     505   92.23
     510   92.35     515   92.37     520   92.36     525   92.39     530   92.46
     535   92.44     540   92.36     545   92.41     550   92.45     555   92.46
     560    92.5     565   92.61     570   92.84     575   92.84     580   92.94
     585   94.03     590   93.61     595   93.52     600   93.61     605   93.79
     610   93.73     625   93.73     635   93.51     640   93.56     645   93.66
 649.989   93.96 654.989   93.65 659.989   93.35 664.989   93.31 674.989   93.45
 679.989   93.66 684.989   93.77 689.989   93.94 694.989   93.47 699.989   93.33
 704.989   92.98 709.989   93.25 714.989   93.87 719.989   93.69 724.989   93.68
 729.989   93.68 734.989   93.72 739.989   93.82 744.989   93.67 749.989   93.72
 754.989    92.8 759.989   92.57 764.933   92.68 769.933   92.66 774.933   92.83
 779.933   92.79 784.933   92.91 789.933   92.86 794.933   92.99 799.933   93.24
 804.933   93.06 809.933   92.38 814.933   93.17 819.933    93.1 824.933   93.16
 829.933   93.19 834.933   93.19 839.933   93.13 844.933   92.09 849.933   91.59
 854.933   89.85 859.933   89.85 860.393  89.554 864.933   86.63 869.933   86.33
 874.933   86.05 879.933   86.06 884.933   86.06 889.933   86.05 894.933   86.05
 909.933   86.02 914.933   86.03 919.933   86.02 924.933    86.1 929.933    86.1
 934.933   86.18 939.933   86.06 944.933   86.06 949.933      86 959.933      86
 964.933   86.01 969.933   86.19 974.933   89.04 979.933    89.7 984.933   90.69
 989.933   90.69 994.933    92.9 999.933   93.571004.933   93.741009.933   93.93
1014.933   93.891019.933   93.571024.933   93.661029.933   93.681034.933   93.72
1039.933   93.651044.933   93.661049.922   93.641054.922   93.451059.922   93.47
1064.922   93.361069.922   93.341074.922   93.261079.922   93.251084.922   93.31
1089.922   93.241094.922   93.251099.922   93.191104.922   93.241109.922   93.26
1114.922   93.281119.922   93.171124.922   93.121129.922   93.161134.922   93.31
1139.922   93.311144.922   93.421149.922   93.461159.922   93.241164.922    93.4
1169.922    93.31174.922   93.361179.922      931184.922      931189.922   92.95
1194.922   92.121199.922   92.281204.922   92.251209.922    92.21214.922   91.91
1219.922   91.891224.922   91.841229.922   91.751234.922   91.721239.922    92.3