Geom Title=
Program Version=5.00
Viewing Rectangle= 1965043.85341185 , 2068378.48310582 , 358489.020505508 , 288841.706530617 

Junct Name=2               
Junct Desc=, 0 , 0 ,-1 ,0
Junct X Y & Text X Y=2065153.1491106,353302.9762212,2065153.1491106,353302.9762212
Up River,Reach=Bald Eagle Cr.  ,Lock Haven      
Up River,Reach=tributary       ,example         
Dn River,Reach=Bald Eagle Cr.  ,lower           
Junc L&A=1040.2,0
Junc L&A=0,0

River Reach=Bald Eagle Cr.  ,Lock Haven      
Reach XY= 379 
1968492.21433393289524.5233342921968872.31414777289974.642874178
1969142.38629581290264.717931827 1969182.3963561290614.810200465
1969162.39132596290934.8949238581969122.38126566291224.972102043
 1969062.3640547291705.0991871381968982.34393411292095.201516068
1968912.32420807292515.311390201  1968902.321693292775.381023165
1969052.36153962293125.4732917841969312.43117259293355.533259013
1969592.50371517293475.5655604081969932.59346872293745.637708452
1970142.65052631294085.7253414681970512.74782508294505.837336143
1970722.80276215294765.9048485751970982.87027459295005.969451388
1971533.01708574295246.0319336781971993.13702017295456.086870752
1972363.23431894295576.1191721561972583.29389161295616.129232453
1972933.38616023295586.1216872361973263.47339871295436.081840605
1973473.52833578295176.0143281641973723.59333314294905.942180125
 1973983.6629661294675.8822129151974313.75020458 294405.81006488
1974593.82274716294275.7773689181974873.89741027294245.767703179
1975203.98464875294295.7823990691975554.07691737294415.812579946
1975844.15409556294375.8025196581976164.23669843294265.774853843
1976494.32393691294205.7576428821976754.39356987294265.774853843
1977024.46359738294355.7974895081977444.57559205294515.839851213
1977724.64813463294705.8897581311977984.71776759294965.959391091
1978134.75761422 295196.019358311978364.81758144295456.086870752
1978504.85491299295646.1388981971978744.91739528295796.176624295
1979105.01217898296176.2785586641979395.08935716296466.353616331
1979745.18162579296856.4580657751980055.26383412297216.552849469
1980275.32128626297576.6476331641980455.36867811297986.754992235
1980765.45088644298296.837200562 1981175.5582455298806.971830887
1981345.60312228 299077.041858391981605.67275524299317.106461212
1981825.73020738299517.1588832061982175.82247601299757.221365496
1982425.88959389300027.293513526 1982585.9319556300287.361025963
1982645.94704604300507.4205986351982856.00198311300727.478050783
1983066.05692018300997.5480782911983306.12152299301327.635316764
1983666.21630669301667.7250703221983996.30354517301947.799733422
1984286.37860282302287.8894869711984646.47550705 302647.98427067
1984966.55810992302848.0366926681985206.62271274303018.081569445
1985476.69274025303258.1461722581985646.73761702303478.203624398
1985836.78752395303698.2610765461986066.84961169303978.335739656
 1986296.9095789304198.3931917871986616.99430231304428.453159011
1987037.10417645304598.498035797 1987337.1838697 304798.55045779
1987617.25853281305008.6075153771988027.36589188305228.664967522
1988257.42585909305388.7073292231988587.51309757305618.767296438
 1988897.5953059305948.8545349061989247.68757452306238.931713092
1989437.73748145306458.9891652411989667.79956919306799.078918789
  1989777.827235307169.1762175541990107.91447347307649.303302667
1990518.02183254308159.4379329921990748.08392028308559.542776984
1990968.14137242309099.6849525261991228.21100538309569.809522563
1991558.29824386309999.9240323041991788.35821108310229.983999519
1991938.39805771310600.0812982791992018.41817829311080.208383392
1992098.44041941311320.2708656781992328.50038662311810.400465866
1992648.58511003312360.5451564791993008.67989372312750.647485395
1993358.77216235313030.7221485141993748.87449127313170.759480056
1994118.97179004313170.7594800561994459.06154359313060.729693727
1994849.16599303 312890.68481695 1995219.2632918312620.614789448
1995659.37819609312490.5799729591996069.48767568 312380.55018663
1996429.58245937312300.5300660451996839.68981844312210.505309848
1997179.77957199312230.5103399951997629.89911187312270.522520824
1998070.01401616312350.5426414081998610.15619171312570.600093548
1999000.26064115312770.6546360731999440.37554543313000.714603288
1999900.49760039313250.7796006492000310.60495946313590.869354203
2000700.70728838314091.001469448 2001060.8041926314581.131069631
2001300.86667489314881.2107628872001560.93418732315321.325667162
2001760.98872985 315661.415420722001971.04366691 316031.51271949
2002141.08854369316321.5898976662002401.15605613316651.677136153
2002641.22065894317011.7719198572002891.28565631317251.836522665
   2003251.38044317661.9438817322003711.50249496 318112.06342161
2004141.61488417 318492.163235462004661.75202957318992.295350709
2005071.86150916319372.3951645592005702.02632037319972.552430549
2006122.13831503320382.6619101342006592.26288506 320852.78435964
2006982.36521398321192.8741131832007582.52247997321713.011258579
2007932.61474859322013.090951845  2008252.699472322193.138343697
2008492.76407481322223.1458889132008702.81901188322323.173160176
2008812.84667769322473.2130067972008962.88652432322673.265428795
2009142.93391617 322813.302760362009362.99348883322903.325396015
2009623.06100127322963.3426069812009883.13063423323103.377818009
2010083.18305623323333.439905746  2010253.227933323513.487297608
2010553.30550574323763.5522949642010753.36004826324093.639533442
2010903.39777436324393.7192266982010993.42253055324863.843796731
2011123.45734703325123.9113091582011303.50473888325363.973791458
2011553.56973624325614.0409093422011933.66955008325944.128147829
2012313.77148445326264.2128712222012563.83648182326434.257747998
2012883.92120522326534.2828987292013194.00341355326644.312685063
2013354.04577525326734.3353207272013504.08562188326904.380197508
2013674.12837813327024.4124989132013884.18543572327104.434740029
2014074.23534265327024.4124989082014224.27518927326914.382712574
2014404.32258112 326714.330290592014494.34521679326644.312685063
2014694.39763878 326604.30262477 2014934.4622416326604.302624775
2015204.53226911326524.2803836582015554.62453773326414.252717848
2015834.69920084326244.2078410852015994.74156254326044.153298559
2016124.77637902 325964.133177972016434.85646683325854.103391632
2016784.94873545325724.0706956752016954.99361223325784.085786118
2017165.05066982325894.1155724612017435.12069733 326184.19063011
2017615.16808918326444.2602630692017855.23269199326714.330290586
2018115.30020443326964.3974084742018385.37235247327144.444800321
2018625.43483476327294.4846469432018945.51955816327454.527008648
 2019215.5917062327554.5521593882019515.66927893327814.621792343
2019815.74897218 328084.691819862020145.83621066328454.789118634
2020395.90120802328854.8960831392020625.96329576329204.988351777
2020806.01068761329485.0608943462020996.06059454329805.145617758
2021266.13062205330195.247946674 2021566.2103153330465.320094713
2021826.27994826330845.4199085582022026.33237026331155.502116885
 2022246.3898224331545.6044458112022506.45945537332045.736561056
2022736.51942258332365.8212844582023026.59660076332585.878736607
2023406.69641461 332915.965975082023696.77147227333276.060758775
2023956.84110523333536.1303917342024266.92331356333816.202934326
2024366.94846429334036.2625069882024446.97070541 334196.30486869
 2024687.0331877334346.3425947932025377.21520987334666.427318195
2025627.28232776334736.4470442322025977.37459638334756.452074387
2026227.43959375334646.4222880492026327.46686501334466.374896192
2026387.48195545334256.3199591332026447.49704589334106.280112502
2026657.55410348334056.2675371392026907.61910085334006.252841235
2027147.68158314333976.2452960182027387.74618595333946.237750796
2027707.83090936334026.2599919082028047.92066291334186.302353624
2028347.99823564334286.3275043452028598.06535353334366.349745466
2028818.12280567334516.3874715742029018.17522766334696.434863416
2029348.26246614334886.4868908672029688.35221969334926.496951159
2029878.40212661335006.5170717532030098.46169928335226.576644415
2030278.50909113335406.624036258 2030488.5640282335646.686518553
2030658.60890497335896.7515159192030868.66384204336086.803543369
2031128.73135448336186.8286940992031458.81859296336156.821148869
2031738.89325607336156.8211488732032038.97294932336276.853450287
2032339.05052205336516.9159325772032639.13021531336847.003171055
2032939.20990857337117.0731985672033219.28457168337337.132771238
2033499.35711426337607.2027987362033839.44686781337817.259856337
2034219.54668165338027.3147934112034529.62888998338197.359670183
2034829.70858324338427.4196374022035089.77609568338677.486755286
2035379.85327386338967.5618129442035479.88054512339177.616750013
2035739.94805756339497.701473406 2035960.0055097339677.748865272
2036270.08771803339787.7786515962036560.16489621339937.818498222
2036850.24207439340127.8684051492036990.27728542340367.930887435
2037190.33182795340738.0281862012037270.35194853341068.115424688
2037290.35697868341438.2127234582037290.35697868342068.379655187
 2037160.3221622342458.4819841122036900.25464976342908.601523994
2036600.17495651343188.6761870952036380.11750436343318.708883061
2036240.08017281343518.7634255822036270.08771803343798.835968165
2036460.13762495344038.900570983 2036800.2273785344208.945447764
2037050.29449639 344429.002899892037110.30958683344879.120319253
2037070.29952654345209.2075577312036880.24961962345569.302341426
2036870.24710454345839.3744894652037040.29198132346169.461727938
2037340.36955405346559.5640568542037650.45176238346829.636204898
2038110.57381734347169.7259584472038450.66357089347329.768320148
2038810.75835458347329.7683201532039130.84307799347179.728473522
2039380.90807535347139.7162926982039630.97519324347229.741048885
2039781.01503987 347589.83583258 2039921.0502509348089.967947839
2039961.06243172348310.0253999792039931.05276597348620.107608305
2039851.03264538348810.1575152372039680.98776861349030.214967372
2039590.96301242349210.2623592242039540.95043705349370.304720926
2039640.97770831349480.3345072542039831.02761523349530.347082627
 2040041.0825523349480.3345072592040271.14251952349480.334507259
 2040441.1873963349450.3269620332040701.25702926349240.272024969
2040901.30945125349070.227148187 2041081.3568431348940.192331717
2041271.40675002348770.147454927 2041441.4516268348590.100063089
2041661.50907894348500.0753068972041971.59128727348430.057701387
2042231.66092023348440.0602164582042521.73597789348470.067761684
2042771.80309578348480.0702767552043081.88530411348430.057701387
2043231.92515074348360.0400958742043371.96036177348250.010309535
 2043522.0002084348069.9629176792043772.06732628348009.947827245
2044062.14238394348049.9578875422044372.22459227347909.920555987
2044602.28455949347809.893284724 2044882.3592226347669.858073701
2045182.43891585347619.8433778112045592.54627492347669.858073701
2045832.61087773 347599.838347662046062.67084495347369.778380436
2046302.73332724347039.6911419722046572.80547527346789.624024079
2046822.87047264346529.5565116422046982.91283434346239.479333452
2047232.97995223346149.4566977922047583.07222085346179.464243014
2047883.14979358346259.4843636122048223.23954713346329.504089644
2048623.34651165 346469.541421192049023.45135564346639.586297976
 2049323.5310489346809.6311747432049763.64595318347039.691141963
2050113.73822181347169.7259584422050503.84267125347249.746079031
2050793.91772891347259.7485941022051154.01251261347339.770835223
2051344.06241953347409.7884407372051654.14462786   347509.815712
2052064.25410745347739.8756792062052454.35643637347999.943191661
2052914.47849132348380.0451260242053314.58333531348670.120183682
2053644.67057379348880.1772412742053994.76284242349040.217482443
2054224.82280963349100.2346934142054484.89244259349150.247268781
2054774.96750025349180.2548140032055025.03461814349200.259844149
2055255.09458536349300.2871154122055495.15706765349530.347082627
2055625.19188413349680.3869292522055875.25900202350000.471652659
2055965.28163768350230.5316198742056095.31645416350390.573981576
2056425.40369264350580.623888498   2056675.46869350680.651159756
 2056995.5534134350740.666250209 2057355.6481971350730.663735124
2057725.74549587350720.6612200492058165.86252068350680.651159761
2058545.96233453350540.6138282062058806.03196749 350370.56895143
2059016.08690456350250.536650016 2059236.1443567350210.526589733
2059636.24920069350150.5114992852060066.36371043350130.506469139
2060526.48576539350230.5316198742061106.63800123350390.573981576
2061396.71517941350520.6087980552061626.77514663350690.653674832
2062066.89217144350990.7333680882062306.95465373  351260.8033956
2062707.05949772351600.8931491492063017.14170605351880.967812254
2063427.24906511 352281.072656252063707.32372822352511.134744002
2064187.45081333352761.199741354 2064557.5481121352971.254678423
2064977.65798624353181.3096154912065150.89462426353301.502105459
2065153.14911059353302.976221186
Rch Text X Y=1992657.4480281,305469.136556
Reverse River Text= 0 

Type RM Length L Ch R = 1 ,139387  ,309.84,571.85,697.23
XS GIS Cut Line=4
1966056.93801669291992.6868693151968654.89250785290155.915929311
1969035.48428343289973.8943289511969647.74126343 289642.94403692
Node Last Edited Time=Dec-04-2015 09:11:54
#Sta/Elev= 229 
       0  848.84      20  848.84      40  844.66      60  838.31      80     834
     100  828.16     120  825.56     140     822     160  812.97     180  807.81
     200  800.78     220  797.47     240  793.66     260  790.34     280  781.25
     300  771.16     320  766.97     340  760.47  348.67  760.47     360  760.47
     380  751.16     400  744.78     420     739     440  733.13     460  733.13
     480  727.44     500  724.22     520  721.72     540  719.69     560  719.69
     580  718.22     600  717.19     620  716.69     640  716.69     660  717.53
     680  717.63     700  717.84  716.06  717.92     720  717.94     740  717.97
     760  717.44     780  717.44     800  715.84     820  714.09  822.43  714.01
     840  713.47     860     712     880  711.63     900  711.06     920  710.41
     940  709.63     960  708.97     961  708.93     980  708.16    1000  707.91
    1020  706.63    1040  705.47    1060  704.44 1077.34  703.27    1080  703.09
    1100  701.47    1120  701.47    1140  700.97    1160  700.66 1199.83  700.66
    1220  700.66    1240  699.69    1260  699.28    1280  698.09    1300  697.13
    1320  695.66    1340  695.44    1360   694.5    1380  693.84    1400  692.25
    1420     691    1440     691    1460  691.69    1480  692.66    1500  692.75
    1520  694.81    1540  694.81    1560  697.56    1580  699.97    1600  700.03
    1620  701.84    1640   701.5    1660     703    1680  702.97    1700  703.66
    1720  703.47    1740  702.66    1760  701.81    1780  700.91    1800  698.63
    1820  697.31    1840  692.53 1853.15   688.9    1860     687    1880     687
    1900  684.19    1920  683.22    1940  683.78    1960  684.91    1980  685.63
    2000  687.28    2020  687.88    2040  688.41    2060   688.5    2080  688.41
    2100  688.34    2120  688.34    2140  688.44    2160  688.44    2180  688.13
    2200  688.13    2220  687.47    2240  686.16    2260  686.16    2280  685.47
    2300  684.16    2320  683.63    2340  681.84    2360  679.63    2380  677.06
    2400  673.94    2420  675.41    2440  675.03    2460  676.78    2480  676.66
    2500  675.75    2520  675.66    2540  675.66    2560  676.34    2580  678.28
    2600  678.94    2620  678.66    2640  678.66    2660  676.78    2680  676.44
    2700  672.06    2720   670.5    2740  669.22    2760  667.56    2780  666.78
    2800   665.5    2820  665.06    2840  664.66    2860  664.66    2880  665.06
    2900  666.06    2920  666.84    2940  667.91    2960  667.91    2980  668.97
    3000  670.47    3020  671.09 3030.71  671.61    3040  672.06    3060  672.31
    3080  673.06    3100  673.34    3120  674.34    3140  674.69 3149.22  672.17
    3160  669.22    3180  664.34 3199.98  660.69 3219.98  660.03 3239.98  659.53
 3258.18  659.25 3259.98  659.22 3266.73  658.98 3279.98   658.5 3299.98  658.72
 3319.98  659.47 3339.98  659.56 3359.98  660.03 3379.98  660.03 3399.98  659.34
 3419.98  656.44 3439.98  656.53 3459.98  656.78 3479.98  656.78 3489.97  657.37
 3499.98  657.97 3519.98  659.78 3539.98  659.47 3559.98  661.47 3579.98  661.47
 3599.98  667.94 3619.97  673.75 3627.54  678.02 3639.97  685.03 3659.97  690.72
 3679.97  697.53 3699.97   699.5 3719.97  702.72 3739.97  704.72 3759.97  706.75
 3779.97  709.63 3799.97  714.78 3819.97  715.97  3826.5  716.01 3839.97  716.09
 3859.97  722.63 3879.97  727.03 3899.97  736.25 3919.97  736.25 3939.97  746.19
 3940.19  746.22 3959.97  749.09 3979.97  762.84 3999.97  766.75 4019.97  773.78
 4039.97  776.69 4059.97  782.34 4079.97   782.5 4099.97  784.53 4119.97  783.44
 4139.97  783.34 4159.97  781.94 4179.97  781.84 4199.97  781.38 4219.97  783.78
 4239.97  784.16 4259.97  784.16 4279.97     786 4299.51  786.16
#Mann= 14 ,-1 , 0 
       0     .06       0  348.67     .04       0  716.06     .04       0
  822.43      .1       0     961     .04       0 1077.34    .055       0
 1199.83     .04       0 1853.15    .055       0 3030.71     .06       0
 3258.18     .04       0 3266.73    .035       0 3489.97     .06       0
  3826.5     .12       0 3940.19     .06       0
Bank Sta=3149.22,3627.54
XS Rating Curve= 0 ,0
XS HTab Horizontal Distribution= 5 , 5 , 5 
Exp/Cntr=0.3,0.1

Type RM Length L Ch R = 1 ,138815  ,401.58,871.7,915.23
XS GIS Cut Line=4
1966305.14967545292207.8034988811968605.25102431 290553.05627975
1969283.69594219290503.4147962041970028.33303901290453.771192141
Node Last Edited Time=Dec-04-2015 09:11:54
#Sta/Elev= 240 
       0  849.97      20  844.44      40  841.66   44.93  840.89      60  838.53
      80  828.81     100  822.44     120  815.06     140  810.31     160  798.59
  168.12  798.59     180  798.59     200  788.47     220  780.41     240  776.47
     260  768.06     280  768.06     300  754.34     320  741.44     340  738.34
     360  731.91     380  731.91     400  723.84     420  719.97     440  716.06
     460  712.69     480  709.97     500  709.28     520  707.91     540  707.25
     560  706.94     580  706.41     600  706.91     620  705.59     640  704.84
     660  704.31  667.55  703.97     680  703.41     700  703.31     720  702.28
     740  701.56     760     701   777.8  700.33     780  700.25     800  699.91
     820  699.91     840  700.38     860  700.34     880  701.72     900  702.13
  900.97  702.19     920  703.34     940  705.84     960  706.78     980  706.38
    1000  704.84 1009.96  704.28    1020  703.72    1040  699.84    1060  698.38
    1080  698.25    1100  697.03    1120  698.34    1140  697.22  1147.3  697.26
    1160  697.34    1180  697.31 1181.17  697.22    1200  695.75    1220  694.16
    1240  694.16    1260  691.47    1280  689.66    1300  688.94    1320   687.5
    1340   687.5 1352.38  686.55    1360  685.97    1380     686    1400  686.88
    1420  689.69    1440  689.69    1460  692.88    1480  693.97    1500  694.81
    1520  695.19 1523.58   695.2    1540  695.25    1560  695.09    1580  694.97
    1600  694.19    1620  694.13 1639.99  693.19    1640  693.19    1660  691.75
    1680  691.38 1686.23  690.74    1700  689.34    1720  688.69    1740  686.09
    1760  685.13 1763.16  684.91    1780  683.75    1800  681.22    1820  680.53
    1840  677.81 1857.43  677.59    1860  677.56    1880  676.84 1886.39   676.9
    1900  677.03    1920  678.81    1940  680.31    1960  683.22    1980     683
    2000     685    2020  685.47    2040  685.81    2060  685.66    2080  685.34
    2100  683.91    2120  680.28    2140  677.47    2160  676.44    2180  674.84
    2200  674.84    2220  675.88    2240  677.13    2260  676.94    2280  677.47
    2300  677.47    2320  678.13    2340  677.75    2360  678.16    2380  678.72
    2400  678.72    2420  677.72    2440  676.31    2460  676.84    2480  677.97
    2500  680.72    2520   679.5    2540  681.75    2560  679.84    2580  677.44
    2600  678.03    2620  674.88    2640  674.75    2660   672.5    2680  672.34
    2700  671.41    2720  670.97    2740  671.59    2760  671.94    2780  671.97
    2800  671.91    2820  671.88 2839.34  671.63 2859.34  671.34 2879.34  671.06
 2899.34  670.41 2919.34  669.78 2939.34  669.47 2959.34  669.16 2979.34  668.81
 2999.34  668.16 3019.34  667.47 3039.34  666.97 3059.34  666.56 3079.34  665.84
 3099.34  665.09 3119.34  664.72 3129.62   664.4 3139.34  664.09 3159.34  662.31
 3160.25  662.22 3179.34  660.28 3199.34  659.19 3219.34  659.03 3239.34  658.88
 3246.22  658.84 3259.34  658.75 3279.34   658.5 3299.34  658.78 3319.34  659.06
 3339.34  659.38 3359.34  659.41 3360.77  659.06 3379.34  654.47 3399.34  653.75
 3419.34  654.38 3439.34  654.97 3459.34  655.56 3479.34  659.19 3495.79  667.87
 3499.34  669.75 3519.34  680.28 3539.34  692.25 3559.34   699.5 3579.34  707.41
 3599.34  715.28 3619.34  720.22 3639.34  720.69 3659.34  721.13 3679.34  721.59
 3699.34  722.81 3719.34  724.34 3739.34  725.69 3756.64  727.04 3759.34  727.25
 3779.34  729.59 3799.34  731.53 3819.34  732.47 3839.34     734 3859.34  735.84
 3879.34  737.13 3899.34  738.09 3919.34  739.56 3939.34  741.19 3957.05  741.66
 3959.34  741.72 3979.34  742.28 3999.34  742.69 4019.34  743.31 4039.34  744.19
 4057.26  744.81 4059.34  744.88 4079.34  745.38 4099.34  746.16 4119.34  746.97
 4139.34  747.38 4157.46  747.34 4159.34  747.34 4179.34  747.53 4199.34  747.53
 4219.34  746.97 4239.34  746.13 4257.66  744.98 4259.34  744.88 4259.38  744.88
#Mann= 24 ,-1 , 0 
       0     .04       0   44.93     .06       0  168.12     .04       0
  667.55      .1       0   777.8     .04       0  900.97    .055       0
 1009.96     .04       0  1147.3    .055       0 1181.17     .04       0
 1352.38    .055       0 1523.58     .04       0 1639.99    .055       0
 1686.23     .04       0 1763.16    .055       0 1857.43     .04       0
 1886.39    .055       0 3160.25     .06       0 3246.22    .035       0
 3360.77     .06       0 3756.64    .055       0 3957.05     .12       0
 4057.26    .055       0 4157.46     .06       0 4257.66     .04       0
Bank Sta=3129.62,3495.79
XS Rating Curve= 0 ,0
XS HTab Horizontal Distribution= 5 , 5 , 5 
Exp/Cntr=0.3,0.1

Type RM Length L Ch R = 1 ,137944  ,566.85,735.3,721.24
XS GIS Cut Line=6
1966520.26630501292522.2073365681967810.97032342  291628.6436686
1968489.41736183291363.8834349761969200.95942945291380.429889306
1969894.02960628291394.2917593711970721.16147603290807.987881328
Node Last Edited Time=Dec-04-2015 09:11:54
#Sta/Elev= 256 
       0   839.5      20  836.25      40  835.81      60  831.81      80  825.78
     100  822.03     120  811.16     140  804.97  147.59  803.83     160  801.97
     180  794.81     200  788.63     220  776.91     240  771.63     260  767.97
     280  764.13     300  756.72     320  749.47     340  742.72  358.88  734.37
     360  733.88     380  733.88     400   728.5     420  725.06     440  718.47
     460  713.97     480  712.66     500  711.03     520  709.47     540  706.44
     560  705.53     580  703.56     600  702.44     620  701.75  627.93  701.16
     640  700.25     660  699.25     680  698.28     700  697.91     720  697.78
     740  696.97  749.53  696.46     760  695.91     780  695.44     800  695.47
     820  695.31     840  697.91     860  702.25  871.15  703.14     880  703.84
     900  705.13     920  705.41     940  705.41     960  703.72     980  701.03
    1000  698.03    1020  695.69    1040  692.09    1060  691.75    1080  687.91
    1100  686.78 1114.35  686.31    1120  686.13    1140  685.22    1160  685.22
    1180  684.38    1200  683.59    1220  683.31 1237.15  682.69    1240  682.59
    1260  682.41    1280  682.19    1300  682.25    1320  683.66    1340  685.94
    1360  688.47    1380  690.84    1400  690.84    1420  691.66    1440  691.69
    1460  691.63 1479.17  691.29    1480  691.28    1500  691.28    1520  690.41
    1540  690.09    1560  688.16 1579.86  688.28 1599.14  686.54 1599.86  686.47
 1619.86  686.75 1639.86  686.91 1659.86  685.38 1679.86  685.38 1699.86   685.5
 1719.86  685.97 1739.86  686.03 1759.86  686.31 1779.86  685.59 1799.86  684.41
 1819.86  682.56 1839.86  681.13 1859.86  678.06 1879.86     674 1899.86  672.59
 1919.86  670.75 1939.86  667.69 1959.86  667.69 1979.86  666.22 1999.86  665.63
 2019.86  665.09 2021.05  665.08 2039.86     665 2059.86  664.78 2079.86  664.34
 2099.86  665.19 2119.86  665.34 2139.86  665.69  2149.2  666.25 2159.86  666.88
 2179.86  667.16 2199.86  668.44 2219.86  669.25 2239.86  669.66 2259.86  670.19
 2279.86  670.66 2299.73  670.94 2319.73  671.22 2339.73  671.28 2359.73  671.38
 2379.73  671.44 2399.73  671.34 2419.73  671.16 2439.73  670.88 2459.73  670.56
 2479.73  669.94 2499.73  669.28 2519.73  668.94 2539.73  668.56 2559.73  668.19
 2579.73  667.59 2599.73  666.78 2599.91  666.77 2619.73  665.09 2639.73     663
 2659.73  660.94 2679.73  659.16 2699.73     659 2719.73  658.75 2739.73  658.59
 2759.73  658.59 2779.73  658.66 2799.73  658.84 2819.73  659.03 2839.73     659
    2840  658.99 2859.73  657.88 2879.73  653.56 2899.73  653.94 2919.73  654.31
 2939.73  654.69 2940.02   654.7 2959.73  655.06 2979.73  655.47 2999.73  655.91
 3019.73     661 3031.49  666.86 3039.73  670.97 3059.73  681.53 3079.73  688.28
 3099.73  691.66 3119.73  688.44 3139.73  684.22 3159.73  682.78 3179.73  689.88
 3199.73  695.19 3219.73  697.97 3235.06  700.77 3239.73  701.63 3259.73  705.72
 3279.73  708.03 3299.73  709.84 3319.73  711.53 3339.73  713.41 3359.73  716.19
 3379.73  718.44 3399.73  719.53 3419.73  720.84 3439.73  722.41 3459.73  723.25
 3479.73  723.81 3499.73  724.75 3519.73  725.75 3539.73  726.22 3559.73  726.66
 3579.73  727.06 3599.73  727.63 3619.73  728.41 3639.73  728.97 3679.73  729.53
 3699.73  729.72 3719.22  729.66 3739.22  729.78 3759.22  728.75 3779.22  727.66
 3799.22  727.63 3819.22  726.81 3839.22  725.94 3859.22  725.03 3879.22  723.53
 3899.22  721.78 3919.22  721.78 3939.22  720.84 3959.22  719.94 3979.22  718.75
 3987.49  718.08 3998.77  717.17 3999.22  717.13 4019.22  717.75 4039.22  717.34
 4059.22  715.78 4079.22  713.69 4099.22  711.75 4110.07  712.33 4119.22  712.81
 4139.22  711.63 4159.22  711.31 4179.22  710.84 4199.22  709.13 4219.22  707.69
 4239.22  707.69 4259.22  707.06 4279.22     706 4299.22  704.22 4319.22  703.19
 4339.22  703.19 4359.22  702.84 4379.22  701.91 4399.22  701.13 4419.22  700.34
 4439.22  699.28 4459.22  699.53 4479.22  698.47 4499.22  697.75 4519.22  697.38
 4539.22  698.09 4559.22  698.63 4579.22  699.84 4599.22  702.53 4600.27  702.75
 4619.22  706.66 4639.22  710.59 4659.22  713.63 4679.22  713.63 4699.22  718.66
 4716.12  723.84
#Mann= 19 ,-1 , 0 
       0     .04       0  147.59     .06       0  358.88     .04       0
  627.93     .04       0  749.53      .1       0  871.15     .04       0
 1114.35    .055       0 1237.15     .04       0 1479.17     .06       0
 1599.14    .055       0 2021.05     .06       0  2149.2    .055       0
    2840    .035       0 2940.02     .06       0 3235.06    .055       0
 3987.49     .06       0 3998.77    .055       0 4110.07     .06       0
 4600.27     .04       0
Bank Sta=2599.91,3031.49
XS Rating Curve= 0 ,0
XS HTab Horizontal Distribution= 5 , 5 , 5 
Exp/Cntr=0.3,0.1

Type RM Length L Ch R = 1 ,137208  ,635.25,579.12,478.74
XS GIS Cut Line=6
1966967.05025952292919.3455664891968009.54049864292174.710590193
1968456.32233263292091.9719569281969267.14948785292108.520531795
1969855.63326529292108.5205317861970927.85538142291324.721584564
Node Last Edited Time=Dec-04-2015 09:11:54
#Sta/Elev= 237 
       0  793.03      20  792.88      40  793.31      60  791.25      80  791.28
     100  787.69     120  779.44     140  772.06     160  769.31     180  766.94
   183.1   766.3     200  762.81     220  754.97     240  748.69     260  745.91
     280  738.03     300  738.03     320  730.41  331.23  729.09     340  728.06
     360  722.75     380  717.41     400  717.41     420  711.47     440  707.44
     460  702.78     480  699.72     500  699.72     520     697     540  695.91
     560  696.22  576.95  696.64     580  696.72     600  699.16     620  699.91
     640     701     660  701.78     680  701.94  699.82  701.84     700  701.84
     720  701.78     740  700.53     760  698.88     780  696.84     800  694.63
     820  694.63     840  690.22     860  687.03     880  685.66     900  685.19
     920  684.22     940  684.94  945.54  684.77     960  684.31     980  684.59
    1000  684.69    1020  684.13 1034.56  684.56    1040  684.72    1060  683.38
 1068.42  683.03    1080  682.56    1100  682.44    1120  681.75    1140  681.31
    1160  681.31    1180  681.34    1200  681.16    1220   681.5    1240  681.91
    1260  681.91    1280  681.56  1299.9  680.44  1308.4  680.21  1319.9  679.91
  1339.9  679.41  1359.9  679.78  1379.9  679.84  1399.9     680 1405.01  680.16
  1419.9  680.63  1439.9  681.56  1459.9  682.34  1479.9  684.88  1519.9     686
  1539.9  686.84  1559.9   687.5  1579.9  688.59  1599.9   688.5  1619.9  687.97
  1639.9  687.25  1659.9  686.59  1679.9  684.97  1699.9  682.78  1719.9  681.38
 1739.83  679.66 1759.83   673.5 1779.83  667.56 1799.83  661.63 1810.46  659.37
 1819.83  657.38 1859.83  657.38 1879.83  657.75 1899.83  657.31 1919.83  659.75
 1939.83  659.06 1959.83  658.66 1979.83  658.16 1999.83  656.34 2019.83  652.91
 2039.83  655.66 2059.83  653.53 2079.83  654.59 2099.83   653.5 2110.46   653.8
 2119.83  654.06 2139.83  655.28 2159.83  656.53  2169.6  656.13 2179.83  655.72
 2199.83  655.72 2219.83  654.34 2239.83  654.25 2259.83  654.19 2279.83  654.09
 2299.83     654 2310.46  653.97 2319.83  653.94 2339.83  653.88 2359.83  655.81
 2379.83  657.97 2399.83  659.25 2412.49  658.08 2419.83  657.41 2439.83   654.5
 2459.83  654.78 2479.83  661.78 2499.83  664.84 2519.83     671 2539.83  681.66
 2559.83  685.22 2579.83  689.28 2599.83  694.75 2610.49  697.16 2619.83  699.28