Geom Title=
Program Version=5.00
Viewing Rectangle= 323978.55 , 325350.45 , 393231.25694465 , 392185.04859035 

Junct Name=3               
Junct Desc=, 0 , 0 ,-1 ,0
Junct X Y & Text X Y=324539,392790,324539,392790
Up River,Reach=Doplyw A        ,gorna czesc     
Up River,Reach=Doplyw B        ,testowy         
Dn River,Reach=Doplyw A        ,dolna czesc     
Junc L&A=0,0
Junc L&A=0,0

Junct Name=2               
Junct Desc=, 0 , 0 ,-1 ,0
Junct X Y & Text X Y=324022.3592777,392742.4615505,324022.3592777,392742.4615505
Up River,Reach=Doplyw A        ,dolna czesc     
Up River,Reach=Odra            ,gorny           
Dn River,Reach=Odra            ,dolny           
Junc L&A=0,0
Junc L&A=0,0

River Reach=Doplyw A        ,gorna czesc     
Reach XY= 7 
         325014.         392216.         324887.         392383.
         324772.         392378.         324711.         392493.
         324673.         392635.         324577.         392731.
         324539.         392790.
Rch Text X Y=324895.25,392359.5
Reverse River Text= 0 

River Reach=Doplyw B        ,testowy         
Reach XY= 8 
         325337.         393195.         325222.         393136.
         325022.         393082.         324831.         393049.
         324709.         393021.         324645.         392964.
         324589.         392858.         324539.         392790.
Rch Text X Y=325137.5,393093.75
Reverse River Text= 0 

River Reach=Doplyw A        ,dolna czesc     
Reach XY= 2 
         324539.         392790.324022.359277679 392742.46155053
Rch Text X Y=324409.8398194,392778.1153876
Reverse River Text= 0 

River Reach=Odra            ,gorny           
Reach XY= 4 
         324411.   392195.305535         324239.         392416.
         324058.         392628.324022.359277679 392742.46155053
Rch Text X Y=324313.8398194,392332.0945389
Reverse River Text= 0 

River Reach=Odra            ,dolny           
Reach XY= 4 
324022.359277679 392742.46155053         324006.         392795.
         323997.         392993.         323992.         393221.
Rch Text X Y=324014.7694583,392862.0961629
Reverse River Text= 0 

Storage Area=1               ,324350.7287137,393045.0464813
Storage Area Surface Line= 9 
324298.834944128393107.917540884                
324230.635509104393020.854432343                
324268.362856139392975.871826263                
324374.289638197392952.654997319                
324438.135917794393020.854432343                
324461.352746738393106.466489075                
324364.132275534393132.585421637                
324300.285995937393115.172799929                
324297.235532047393109.347402813                
Storage Area Type= 0 
Storage Area Area=
Storage Area Min Elev=
Storage Area Is2D=-1
Storage Area Point Generation Data=0,0,10,20
Storage Area 2D Points= 130 
         324330.         393120.         324340.         393120.
         324350.         393120.         324360.         393120.
         324370.         393120.         324380.         393120.
         324390.         393120.         324400.         393120.
         324300.         393100.         324310.         393100.
         324320.         393100.         324330.         393100.
         324340.         393100.         324350.         393100.
         324360.         393100.         324370.         393100.
         324380.         393100.         324390.         393100.
         324400.         393100.         324410.         393100.
         324420.         393100.         324290.         393080.
         324300.         393080.         324310.         393080.
         324320.         393080.         324330.         393080.
         324340.         393080.         324350.         393080.
         324360.         393080.         324370.         393080.
         324380.         393080.         324270.         393060.
         324280.         393060.         324290.         393060.
         324300.         393060.         324310.         393060.
         324410.         393060.         324420.         393060.
         324430.         393060.         324440.         393060.
         324250.         393040.         324260.         393040.
         324270.         393040.         324280.         393040.
         324340.         393040.         324350.         393040.
         324360.         393040.         324370.         393040.
         324380.         393040.         324390.         393040.
         324400.         393040.         324410.         393040.
         324420.         393040.         324430.         393040.
         324440.         393040.         324240.         393020.
         324250.         393020.         324260.         393020.
         324270.         393020.         324310.         393020.
         324320.         393020.         324330.         393020.
         324340.         393020.         324350.         393020.
         324360.         393020.         324370.         393020.
         324380.         393020.         324390.         393020.
         324400.         393020.         324410.         393020.
         324420.         393020.         324430.         393020.
         324260.         393000.         324270.         393000.
         324310.         393000.         324320.         393000.
         324330.         393000.         324340.         393000.
         324350.         393000.         324360.         393000.
         324370.         393000.         324380.         393000.
         324390.         393000.         324400.         393000.
         324410.         393000.         324270.         392980.
         324280.         392980.         324290.         392980.
         324300.         392980.         324310.         392980.
         324320.         392980.         324330.         392980.
         324340.         392980.         324350.         392980.
         324360.         392980.         324370.         392980.
         324380.         392980.         324390.         392980.
         324360.         392960.         324370.         392960.
324280.757964138 393002.14269844324295.631970306393000.202610679
324283.541924241393016.844707394324298.093259615 393013.20346601
324288.968864543393031.507488419324302.388749762393024.806243705
324299.411525726 393044.79079432324309.100659347 393033.34000004
 324312.86891769393053.445851551324319.260594847393039.875793956
324326.468045171393059.179225294324331.723406514393045.129984135
324340.296697816393063.906929621324344.742686039393049.580967569
324354.339779502 393067.84233471324357.984448479393053.291857465
324369.284192372393070.499439816324370.882189227393055.584802508
  324382.4585219393072.588328216324385.561691257393057.912826864
324394.158822594393076.495227504324400.475492191393062.890092988
324406.758943312393082.553831292324413.441801363393069.124780384
324417.862008858393089.225915072324426.580581764393077.019913004
 324426.43343392393097.445410112324438.267598028393088.228438816
324445.193569881 393094.27878451324430.491988586393091.301620183
Storage Area 2D PointsPerimeterTime=24Sep2015 10:44:08
Storage Area Mannings=0.06
2D Cell Volume Filter Tolerance=0.003
2D Face Profile Filter Tolerance=0.003
2D Face Area Elevation Profile Filter Tolerance=0.003
2D Face Area Elevation Conveyance Ratio=0.02

BreakLine Name=1
BreakLine CellSize=0
BreakLine Polyline= 11 
324287.276609171392994.131909504324290.264286034 393017.03743212
324298.231424335 393033.96760101324311.178024074393044.922416174
 324330.09997754393052.889554475324358.980853882393061.852585064
324386.865837936393064.840261927 324414.75082199393077.786861666
324428.693314017393087.745784543324437.656344606393099.696491994
324438.983643066393087.156484973
LCMann Time=Dec-30-1899 00:00:00
LCMann Region Time=Dec-30-1899 00:00:00
LCMann Table=0
Chan Stop Cuts=-1 



Use User Specified Reach Order=0
GIS Units=METERS
GIS DTM Type=GRID
GIS DTM=
GIS Stream Layer=rivergis@sr101538/start/StreamCenterlines
GIS Cross Section Layer=rivergis@sr101538/start/XSCutLines
GIS Map Projection=
GIS Projection Zone=
GIS Datum=
GIS Vertical Datum=
GIS Data Extents=323305,392165,325130,393217

GIS Ratio Cuts To Invert=-1
GIS Limit At Bridges=0
Composite Channel Slope=5
