Geom Title=Import from RiverGIS
Program Version=5.00
Viewing Rectangle= 324508.86, 326146.86, 393452.14, 392174.14




Storage Area=obszar 2d     , 325345.354655, 392780.679384
Storage Area Surface Line= 18
     325692.9628     393232.5084
     325768.1964     393236.6308
     325827.9711     393210.8658
     325919.6943     393135.6322
     325931.0309     392983.1037
     325861.9808     392697.6281
     325641.4329     392466.7742
     325255.9893     392378.1428
     324994.2175     392384.3263
     324816.9547     392534.7936
     324712.8643     392765.6475
     324747.9046     392886.2275
     324869.5151     393005.7768
     325068.4205     393050.0925
     325236.4080     393065.5515
     325416.7626     393090.2859
     325555.8933     393115.0202
     325692.9628     393232.5084

Storage Area Type= 0
Storage Area Area=
Storage Area Min Elev=
Storage Area Is2D=-1
Storage Area Point Generation Data=,,,
Storage Area 2D Points= 827
       324742.86       392738.14       324742.86       392768.14
       324742.86       392798.14       324742.86       392828.14
       324772.86       392678.14       324772.86       392708.14
       324772.86       392738.14       324772.86       392768.14
       324772.86       392798.14       324772.86       392828.14
       324772.86       392858.14       324772.86       392888.14
       324802.86       392588.14       324802.86       392618.14
       324802.86       392648.14       324802.86       392678.14
       324802.86       392708.14       324802.86       392738.14
       324802.86       392768.14       324802.86       392798.14
       324802.86       392828.14       324802.86       392858.14
       324802.86       392888.14       324802.86       392918.14
       324832.86       392558.14       324832.86       392588.14
       324832.86       392618.14       324832.86       392648.14
       324832.86       392678.14       324832.86       392708.14
       324832.86       392738.14       324832.86       392768.14
       324832.86       392798.14       324832.86       392828.14
       324832.86       392858.14       324832.86       392888.14
       324832.86       392918.14       324832.86       392948.14
       324862.86       392528.14       324862.86       392558.14
       324862.86       392588.14       324862.86       392618.14
       324862.86       392648.14       324862.86       392678.14
       324862.86       392708.14       324862.86       392738.14
       324862.86       392768.14       324862.86       392798.14
       324862.86       392828.14       324862.86       392858.14
       324862.86       392888.14       324862.86       392918.14
       324862.86       392948.14       324862.86       392978.14
       324892.86       392498.14       324892.86       392528.14
       324892.86       392558.14       324892.86       392588.14
       324892.86       392618.14       324892.86       392648.14
       324892.86       392678.14       324892.86       392708.14
       324892.86       392738.14       324892.86       392768.14
       324892.86       392798.14       324892.86       392828.14
       324892.86       392858.14       324892.86       392888.14
       324892.86       392918.14       324892.86       392948.14
       324892.86       392978.14       324922.86       392468.14
       324922.86       392498.14       324922.86       392528.14
       324922.86       392558.14       324922.86       392588.14
       324922.86       392618.14       324922.86       392648.14
       324922.86       392678.14       324922.86       392708.14
       324922.86       392738.14       324922.86       392768.14
       324922.86       392798.14       324922.86       392828.14
       324922.86       392858.14       324922.86       392948.14
       324922.86       392978.14       324922.86       393008.14
       324952.86       392438.14       324952.86       392468.14
       324952.86       392498.14       324952.86       392528.14
       324952.86       392558.14       324952.86       392588.14
       324952.86       392618.14       324952.86       392648.14
       324952.86       392678.14       324952.86       392708.14
       324952.86       392738.14       324952.86       392768.14
       324952.86       392798.14       324952.86       392828.14
       324952.86       392978.14       324952.86       393008.14
       324982.86       392408.14       324982.86       392438.14
       324982.86       392468.14       324982.86       392498.14
       324982.86       392528.14       324982.86       392558.14
       324982.86       392588.14       324982.86       392618.14
       324982.86       392648.14       324982.86       392678.14
       324982.86       392708.14       324982.86       392738.14
       324982.86       392768.14       324982.86       392798.14
       324982.86       392828.14       324982.86       392858.14
       324982.86       392978.14       324982.86       393008.14
       325012.86       392408.14       325012.86       392438.14
       325012.86       392468.14       325012.86       392498.14
       325012.86       392528.14       325012.86       392558.14
       325012.86       392588.14       325012.86       392618.14
       325012.86       392648.14       325012.86       392678.14
       325012.86       392708.14       325012.86       392738.14
       325012.86       392768.14       325012.86       392798.14
       325012.86       392828.14       325012.86       392858.14
       325012.86       392978.14       325012.86       393008.14
       325042.86       392408.14       325042.86       392438.14
       325042.86       392468.14       325042.86       392498.14
       325042.86       392528.14       325042.86       392558.14
       325042.86       392588.14       325042.86       392618.14
       325042.86       392648.14       325042.86       392678.14
       325042.86       392708.14       325042.86       392738.14
       325042.86       392768.14       325042.86       392798.14
       325042.86       392828.14       325042.86       392858.14
       325042.86       392978.14       325042.86       393008.14
       325072.86       392408.14       325072.86       392438.14
       325072.86       392468.14       325072.86       392498.14
       325072.86       392528.14       325072.86       392558.14
       325072.86       392588.14       325072.86       392618.14
       325072.86       392648.14       325072.86       392678.14
       325072.86       392708.14       325072.86       392738.14
       325072.86       392768.14       325072.86       392798.14
       325072.86       392828.14       325072.86       392858.14
       325072.86       392978.14       325072.86       393008.14
       325072.86       393038.14       325102.86       392408.14
       325102.86       392438.14       325102.86       392468.14
       325102.86       392498.14       325102.86       392528.14
       325102.86       392558.14       325102.86       392588.14
       325102.86       392618.14       325102.86       392648.14
       325102.86       392678.14       325102.86       392708.14
       325102.86       392738.14       325102.86       392768.14
       325102.86       392798.14       325102.86       392828.14
       325102.86       392858.14       325102.86       392978.14
       325102.86       393008.14       325102.86       393038.14
       325132.86       392408.14       325132.86       392438.14
       325132.86       392468.14       325132.86       392498.14
       325132.86       392528.14       325132.86       392558.14
       325132.86       392588.14       325132.86       392618.14
       325132.86       392648.14       325132.86       392678.14
       325132.86       392708.14       325132.86       392738.14
       325132.86       392768.14       325132.86       392798.14
       325132.86       392828.14       325132.86       392858.14
       325132.86       392978.14       325132.86       393008.14
       325132.86       393038.14       325162.86       392408.14
       325162.86       392438.14       325162.86       392468.14
       325162.86       392498.14       325162.86       392528.14
       325162.86       392558.14       325162.86       392588.14
       325162.86       392618.14       325162.86       392648.14
       325162.86       392678.14       325162.86       392708.14
       325162.86       392738.14       325162.86       392768.14
       325162.86       392798.14       325162.86       392828.14
       325162.86       392858.14       325162.86       392978.14
       325162.86       393008.14       325162.86       393038.14
       325192.86       392408.14       325192.86       392438.14
       325192.86       392468.14       325192.86       392498.14
       325192.86       392528.14       325192.86       392558.14
       325192.86       392588.14       325192.86       392618.14
       325192.86       392648.14       325192.86       392678.14
       325192.86       392708.14       325192.86       392738.14
       325192.86       392768.14       325192.86       392798.14
       325192.86       392828.14       325192.86       392858.14
       325192.86       393008.14       325192.86       393038.14
       325222.86       392408.14       325222.86       392438.14
       325222.86       392468.14       325222.86       392498.14
       325222.86       392528.14       325222.86       392558.14
       325222.86       392588.14       325222.86       392618.14
       325222.86       392648.14       325222.86       392678.14
       325222.86       392708.14       325222.86       392738.14
       325222.86       392768.14       325222.86       392798.14
       325222.86       392828.14       325222.86       392858.14
       325222.86       392888.14       325222.86       393008.14
       325222.86       393038.14       325252.86       392408.14
       325252.86       392438.14       325252.86       392468.14
       325252.86       392498.14       325252.86       392528.14
       325252.86       392558.14       325252.86       392588.14
       325252.86       392618.14       325252.86       392648.14
       325252.86       392678.14       325252.86       392708.14
       325252.86       392738.14       325252.86       392768.14
       325252.86       392798.14       325252.86       392828.14
       325252.86       392858.14       325252.86       392888.14
       325252.86       393008.14       325252.86       393038.14
       325282.86       392408.14       325282.86       392438.14
       325282.86       392468.14       325282.86       392498.14
       325282.86       392528.14       325282.86       392558.14
       325282.86       392588.14       325282.86       392618.14
       325282.86       392648.14       325282.86       392678.14
       325282.86       392708.14       325282.86       392738.14
       325282.86       392768.14       325282.86       392798.14
       325282.86       392828.14       325282.86       392858.14
       325282.86       392888.14       325282.86       393008.14
       325282.86       393038.14       325312.86       392408.14
       325312.86       392438.14       325312.86       392468.14
       325312.86       392498.14       325312.86       392528.14
       325312.86       392558.14       325312.86       392588.14
       325312.86       392618.14       325312.86       392648.14
       325312.86       392678.14       325312.86       392708.14
       325312.86       392738.14       325312.86       392768.14
       325312.86       392798.14       325312.86       392828.14
       325312.86       392858.14       325312.86       392888.14
       325312.86       393008.14       325312.86       393038.14
       325342.86       392408.14       325342.86       392438.14
       325342.86       392468.14       325342.86       392498.14
       325342.86       392528.14       325342.86       392558.14
       325342.86       392588.14       325342.86       392618.14
       325342.86       392648.14       325342.86       392678.14
       325342.86       392708.14       325342.86       392798.14
       325342.86       392828.14       325342.86       392858.14
       325342.86       392888.14       325342.86       393008.14
       325342.86       393038.14       325342.86       393068.14
       325372.86       392438.14       325372.86       392468.14
       325372.86       392498.14       325372.86       392528.14
       325372.86       392558.14       325372.86       392588.14
       325372.86       392618.14       325372.86       392648.14
       325372.86       392678.14       325372.86       392708.14
       325372.86       392828.14       325372.86       392858.14
       325372.86       392888.14       325372.86       393008.14
       325372.86       393038.14       325372.86       393068.14
       325402.86       392438.14       325402.86       392468.14
       325402.86       392498.14       325402.86       392528.14
       325402.86       392558.14       325402.86       392588.14
       325402.86       392618.14       325402.86       392648.14
       325402.86       392678.14       325402.86       392708.14
       325402.86       392858.14       325402.86       392888.14
       325402.86       393008.14       325402.86       393038.14
       325402.86       393068.14       325432.86       392438.14
       325432.86       392468.14       325432.86       392498.14
       325432.86       392528.14       325432.86       392558.14
       325432.86       392588.14       325432.86       392618.14
       325432.86       392648.14       325432.86       392678.14
       325432.86       392708.14       325432.86       392738.14
       325432.86       392888.14       325432.86       393008.14
       325432.86       393038.14       325432.86       393068.14
       325462.86       392438.14       325462.86       392468.14
       325462.86       392498.14       325462.86       392528.14
       325462.86       392558.14       325462.86       392588.14
       325462.86       392618.14       325462.86       392648.14
       325462.86       392678.14       325462.86       392708.14
       325462.86       392738.14       325462.86       392768.14
       325462.86       392918.14       325462.86       392948.14
       325462.86       392978.14       325462.86       393008.14
       325462.86       393038.14       325462.86       393068.14
       325492.86       392468.14       325492.86       392498.14
       325492.86       392528.14       325492.86       392558.14
       325492.86       392588.14       325492.86       392618.14
       325492.86       392648.14       325492.86       392678.14
       325492.86       392708.14       325492.86       392738.14
       325492.86       392768.14       325492.86       392798.14
       325492.86       392918.14       325492.86       392948.14
       325492.86       392978.14       325492.86       393008.14
       325492.86       393038.14       325492.86       393068.14
       325522.86       392468.14       325522.86       392498.14
       325522.86       392528.14       325522.86       392558.14
       325522.86       392588.14       325522.86       392618.14
       325522.86       392648.14       325522.86       392678.14
       325522.86       392708.14       325522.86       392738.14
       325522.86       392768.14       325522.86       392798.14
       325522.86       392828.14       325522.86       392948.14
       325522.86       392978.14       325522.86       393008.14
       325522.86       393038.14       325522.86       393068.14
       325522.86       393098.14       325552.86       392468.14
       325552.86       392498.14       325552.86       392528.14
       325552.86       392558.14       325552.86       392588.14
       325552.86       392618.14       325552.86       392648.14
       325552.86       392678.14       325552.86       392708.14
       325552.86       392738.14       325552.86       392768.14
       325552.86       392798.14       325552.86       392828.14
       325552.86       392948.14       325552.86       392978.14
       325552.86       393008.14       325552.86       393038.14
       325552.86       393068.14       325552.86       393098.14
       325582.86       392468.14       325582.86       392498.14
       325582.86       392528.14       325582.86       392558.14
       325582.86       392588.14       325582.86       392618.14
       325582.86       392648.14       325582.86       392678.14
       325582.86       392708.14       325582.86       392738.14
       325582.86       392768.14       325582.86       392798.14
       325582.86       392828.14       325582.86       392858.14
       325582.86       392948.14       325582.86       392978.14
       325582.86       393008.14       325582.86       393038.14
       325582.86       393068.14       325582.86       393098.14
       325612.86       392498.14       325612.86       392528.14
       325612.86       392558.14       325612.86       392588.14
       325612.86       392618.14       325612.86       392648.14
       325612.86       392678.14       325612.86       392708.14
       325612.86       392738.14       325612.86       392768.14
       325612.86       392798.14       325612.86       392828.14
       325612.86       392858.14       325612.86       392978.14
       325612.86       393008.14       325612.86       393038.14
       325612.86       393068.14       325612.86       393098.14
       325612.86       393128.14       325642.86       392498.14
       325642.86       392528.14       325642.86       392558.14
       325642.86       392588.14       325642.86       392618.14
       325642.86       392648.14       325642.86       392678.14
       325642.86       392708.14       325642.86       392738.14
       325642.86       392768.14       325642.86       392798.14
       325642.86       392828.14       325642.86       392858.14
       325642.86       392948.14       325642.86       392978.14
       325642.86       393008.14       325642.86       393038.14
       325642.86       393068.14       325642.86       393098.14
       325642.86       393128.14       325642.86       393158.14
       325672.86       392528.14       325672.86       392558.14
       325672.86       392588.14       325672.86       392618.14
       325672.86       392648.14       325672.86       392678.14
       325672.86       392708.14       325672.86       392738.14
       325672.86       392768.14       325672.86       392798.14
       325672.86       392828.14       325672.86       392858.14
       325672.86       392888.14       325672.86       392918.14
       325672.86       392948.14       325672.86       392978.14
       325672.86       393008.14       325672.86       393038.14
       325672.86       393068.14       325672.86       393098.14
       325672.86       393128.14       325672.86       393158.14
       325672.86       393188.14       325702.86       392558.14
       325702.86       392588.14       325702.86       392618.14
       325702.86       392648.14       325702.86       392678.14
       325702.86       392708.14       325702.86       392738.14
       325702.86       392768.14       325702.86       392798.14
       325702.86       392828.14       325702.86       392858.14
       325702.86       392888.14       325702.86       392918.14
       325702.86       392948.14       325702.86       392978.14
       325702.86       393008.14       325702.86       393038.14
       325702.86       393068.14       325702.86       393098.14
       325702.86       393128.14       325702.86       393158.14
       325702.86       393188.14       325702.86       393218.14
       325732.86       392588.14       325732.86       392618.14
       325732.86       392648.14       325732.86       392678.14
       325732.86       392708.14       325732.86       392738.14
       325732.86       392768.14       325732.86       392798.14
       325732.86       392828.14       325732.86       392858.14
       325732.86       392888.14       325732.86       392918.14
       325732.86       392948.14       325732.86       392978.14
       325732.86       393008.14       325732.86       393038.14
       325732.86       393068.14       325732.86       393098.14
       325732.86       393128.14       325732.86       393158.14
       325732.86       393188.14       325732.86       393218.14
       325762.86       392618.14       325762.86       392648.14
       325762.86       392678.14       325762.86       392708.14
       325762.86       392738.14       325762.86       392768.14
       325762.86       392798.14       325762.86       392828.14
       325762.86       392858.14       325762.86       392888.14
       325762.86       392918.14       325762.86       392948.14
       325762.86       392978.14       325762.86       393008.14
       325762.86       393038.14       325762.86       393068.14
       325762.86       393098.14       325762.86       393128.14
       325762.86       393158.14       325762.86       393188.14
       325762.86       393218.14       325792.86       392648.14
       325792.86       392678.14       325792.86       392708.14
       325792.86       392738.14       325792.86       392768.14
       325792.86       392798.14       325792.86       392828.14
       325792.86       392858.14       325792.86       392888.14
       325792.86       392918.14       325792.86       392948.14
       325792.86       392978.14       325792.86       393008.14
       325792.86       393038.14       325792.86       393068.14
       325792.86       393098.14       325792.86       393128.14
       325792.86       393158.14       325792.86       393188.14
       325822.86       392678.14       325822.86       392708.14
       325822.86       392738.14       325822.86       392768.14
       325822.86       392798.14       325822.86       392828.14
       325822.86       392858.14       325822.86       392888.14
       325822.86       392918.14       325822.86       392948.14
       325822.86       392978.14       325822.86       393008.14
       325822.86       393038.14       325822.86       393068.14
       325822.86       393098.14       325822.86       393128.14
       325822.86       393158.14       325822.86       393188.14
       325852.86       392708.14       325852.86       392738.14
       325852.86       392768.14       325852.86       392798.14
       325852.86       392828.14       325852.86       392858.14
       325852.86       392888.14       325852.86       392918.14
       325852.86       392948.14       325852.86       392978.14
       325852.86       393008.14       325852.86       393038.14
       325852.86       393068.14       325852.86       393098.14
       325852.86       393128.14       325852.86       393158.14
       325882.86       392828.14       325882.86       392858.14
       325882.86       392888.14       325882.86       392918.14
       325882.86       392948.14       325882.86       392978.14
       325882.86       393008.14       325882.86       393038.14
       325882.86       393068.14       325882.86       393098.14
       325882.86       393128.14       325912.86       392948.14
       325912.86       392978.14       325912.86       393008.14
       325912.86       393038.14       325912.86       393068.14
       325912.86       393098.14       325353.65       392720.06
       325372.22       392712.63       325364.79       392747.91
       325383.36       392740.49       325379.91       392777.08
       325395.22       392764.22       325399.20       392800.05
       325414.52       392787.19       325420.27       392823.44
       325433.44       392808.39       325442.84       392843.19
       325456.01       392828.14       325467.91       392863.21
       325477.48       392845.65       325494.24       392877.57
       325503.82       392860.02       325520.58       392891.94
       325530.16       392874.38       325551.34       392901.78
       325556.36       392882.42       325579.97       392909.22
       325585.80       392890.09       325608.67       392917.96
       325614.50       392898.82       325637.01       392926.98
       325643.33       392908.01       325447.69       392943.53
       325445.94       392958.43       325449.45       392928.64
       325444.19       392973.33       325439.29       392942.54
       325437.54       392957.44       325441.04       392927.65
       325435.79       392972.34       325417.29       392939.96
       325415.53       392954.85       325419.04       392925.06
       325413.78       392969.75       325400.38       392937.97
       325398.62       392952.86       325402.13       392923.07
       325396.87       392967.76       325381.12       392935.84
       325380.83       392950.84       325381.41       392920.84
       325380.53       392965.83       325364.10       392935.50
       325363.80       392950.50       325364.39       392920.51
       325363.51       392965.50       325345.03       392935.13
       325344.74       392950.13       325345.33       392920.13
       325344.44       392965.12       325328.01       392934.80
       325327.72       392949.79       325328.30       392919.80
       325327.42       392964.79       325301.24       392934.27
       325300.95       392949.27       325301.53       392919.27
       325300.65       392964.27       325284.65       392933.92
       325283.50       392948.88       325285.80       392918.97
       325282.35       392963.83       325267.02       392932.57
       325265.87       392947.52       325268.17       392917.61
       325264.72       392962.48       325249.40       392931.21
       325248.25       392946.17       325250.55       392916.25
       325247.10       392961.12       325232.42       392929.90
       325231.27       392944.86       325233.57       392914.95
       325230.12       392959.82       325210.78       392928.22
       325208.86       392943.10       325212.70       392913.35
       325206.94       392957.98       325193.90       392926.05
       325191.98       392940.92       325195.82       392911.17
       325190.06       392955.80       325170.62       392923.04
       325168.70       392937.92       325172.54       392908.16
       325166.78       392952.79       325153.73       392920.86
       325151.81       392935.74       325155.65       392905.99
       325149.89       392950.62       325129.12       392918.56
       325127.76       392933.50       325130.48       392903.62
       325126.40       392948.44       325112.16       392917.02
       325110.81       392931.96       325113.52       392902.08
       325109.45       392946.89       325091.71       392915.16
       325090.36       392930.10       325093.07       392900.22
       325089.00       392945.04       325074.80       392913.56
       325073.37       392928.49       325076.22       392898.63
       325071.95       392943.42       325048.69       392911.03
       325046.09       392925.81       325051.30       392896.26
       325043.48       392940.58       325031.93       392908.08
       325029.32       392922.85       325034.53       392893.30
       325026.71       392937.62       325000.87       392903.33
       324998.93       392918.21       325002.81       392888.46
       324996.99       392933.08       324983.99       392901.13
       324982.05       392916.00       324985.93       392886.26
       324980.11       392930.88       324960.67       392898.15
       324958.81       392913.04       324962.53       392883.27
       324956.95       392927.92       324944.85       392894.70
       324941.38       392909.29       324948.32       392880.10
       324937.90       392923.88       324928.29       392890.75
       324924.81       392905.34       324931.76       392876.16
       324921.34       392919.94       324918.33       392888.38
       324914.86       392902.97       324921.81       392873.79
       324911.38       392917.57
Storage Area 2D PointsPerimeterTime=25Jan2015 01:00:00
Storage Area Mannings=0.06
2D Cell Volume Filter Tolerance=0.003
2D Face Profile Filter Tolerance=0.003
2D Face Area Elevation Profile Filter Tolerance=0.003
2D Face Area Elevation Conveyance Ratio=0.02

Chan Stop Cuts=-1



Use User Specified Reach Order=0
GIS Ratio Cuts To Invert=-1
GIS Limit At Bridges=0
Composite Channel Slope=5
